CM Phased 1160' Bvgs, Sep=180'
CE
GW	1	16	-580	0	0	-510	0	10	1.33173e-3
GW	2	73	-510	0	10	510	0	10	1.33173e-3
GW	3	16	510	0	10	580	0	0	1.33173e-3
GW	4	16	-580	180	0	-510	180	10	1.33173e-3
GW	5	73	-510	180	10	510	180	10	1.33173e-3
GW	6	16	510	180	10	580	180	0	1.33173e-3
GS	0	0	0.3048		' All in ft.
GE	1
EK
LD	5	0	0	0	57471265.5	0
EX	0	1	1	0	100	0
EX	0	4	1	0	100	0
GN	2	0	0	0	5	1.e-3
FR	0	1	0	0	3.5	0
EN
