CM 1\4lamda transformer
CE
GW 1 1 0.0 -1.45  20.0 0.0 -1.45  20.1  .001
GW 2 60 0.0 -1.45  20.1 0.0 -12.  20.1  .001
GW 3 1 0.0 -12.  20.1 0.0 -12.  20.0  .001
GW 4 60 0.0 -12.  20.0 0.0 -1.45  20.0  .001
GE 0
EX 0 1  1  0  1.0 0.0
LD 4 3  1  1  6600  0 
FR 0 1 0 0 7.05 1
EN
