CM Feeder TEST
CE
GW 1 1 0.0 -.1  16.25 0.0  .1  16.25  9.6e-4
GW 2 15 0.0  .1  16.25 0.0  .1 23.75  9.6e-4
GW 3 1 0.0  .1  23.75 0.0 -.1  23.75  9.6e-4
GW 4 15 0.0 -.1  23.75 0.0 -.1  16.25  9.6e-4
GE 0
EX 0 1  1  0  1.0 0.0
LD 4 3  1  1  660  0 
FR 0 1 0 0 7.01 1
EN
