CM MagLoop 20m 50 Ohm Feed
Cm (questionable model..)
CE
GW 1 6 -.5 -.5  10.0 -.5 -.08  10.0  .01
GW 2 9 -.5 -.5  10.0  .5 -.5  10.0  .01
GW 3 9  .5 -.5  10.0  .5  .5  10.0  .01
GW 4 9  .5  .5  10.0 -.5  .5  10.0  .01

GW 5 6 -.5  .08  10.0 -.5  .5  10.0  .01

GW 6 3 -.5  .08  10.0 -.5 -.08  10.0  .01
GW 7 1 -.5  .08  10.0 -.526  .08  10.0  .0025
GW 8 1 -.5 -.08  10.0 -.526 -.08  10.0  .0025
GW 9 3 -.526  .08  10.0 -.526 -.08  10.0  .0025

GE 1
EK
LD 0 3 5 5 0 0 36.82pF
LD 5 0 0 0 25000000
GN 2 0 0 0 13  0.005 0.0 0.0
FR 0 1 0 0 14.05 1
EX 0 9 2 0  1.0 0.0
EN
