CM Deformed vertical
CE
GW	1	27	0	3.1	3	0	3.1	4.8	1.e-3
GW	2	52	0	3.1	3	0	0.54	3	1.e-3
GW	3	2	0	0.54	3	0	0.44772	3	1.e-3
GW	4	1	0	0.44772	3	0	0.44772	2.94912	1.e-3
GW	5	2	0	0.44772	2.94912	0	0.54	2.94912	1.e-3
GW	6	52	0	0.54	2.94912	0	3.1	2.95	1.e-3
GW	7	1	0	0.54	3	0	0.54	2.94912	1.e-3
GW	8	52	0	3.1	4.8	0	0.51	4.8	1.e-3
GW	9	20	0	0.51	4.8	0	0.5	3.96	1.e-3
GE	0
LD	5	0	0	0	25000000	0
EX	0	7	1	0	1	0
GN	2	0	0	0	13	5.e-3
FR	0	1	0	0	28.5	0
EN
