CM  AutoGP on the top by DL2KQ
CE
GW 1 1 -1.8 0.0  .4 -1.65 0.0  .4  .025
GW 2 1 -1.8  1.65  .4 -1.65  1.65  .4  .025
GW 3 2 -1.8  1.65  .4 -1.8  .825  .4  .025
GW 4 2 -1.8 0.0  .4 -1.8 0.0  1.65  .005
GW 5 1 -1.8 0.0  1.65 -1.8 0.0  2.5  .001
GW 6 2 -1.65 0.0  .4 -.22 0.0  .4  .025
GW 7 2 -1.65  1.65  .4 -.22  1.65  .4  .025
GW 8 2  1.2 0.0  .4  2.58  .08  .4  .025
GW 9 2  1.2  1.65  .4  2.58  1.58  .4  .025
GW 10 2 -1.65  1.65  .4 -1.65  .825  .4  .025
GW 11 2  1.2 0.0  .4  1.2  1.65  .4  .025
GW 12 2  2.58  .08  .4  2.58  1.58  .4  .025
GW 13 1 -1.65 0.0  .4 -1.65 0.0  1.18  .025
GW 14 1 -1.65  1.65  .4 -1.65  1.65  1.18  .025
GW 15 1  1.2 0.0  .4  1.2 0.0  1.18  .025
GW 16 1  1.2  1.65  .4  1.2  1.65  1.18  .025
GW 17 1  2.58  .08  .4  2.58  .08  1.03  .025
GW 18 1  2.58  1.58  .4  2.58  1.58  1.03  .025
GW 19 2 -1.65 0.0  1.18 -.22 0.0  1.18  .025
GW 20 2 -1.65  1.65  1.18 -.22  1.65  1.18  .025
GW 21 2  1.2 0.0  1.18  2.58  .08  1.03  .025
GW 22 2  1.2  1.65  1.18  2.58  1.58  1.03  .025
GW 23 2 -1.65 0.0  1.18 -1.65  1.65  1.18  .025
GW 24 2  1.2 0.0  1.18  1.2  1.65  1.18  .025
GW 25 2  2.58  .08  1.03  2.58  1.58  1.03  .025
GW 26 1 -1.65 0.0  1.18 -1.57 0.0  1.7  .025
GW 27 1 -1.65  1.65  1.18 -1.57  1.65  1.7  .025
GW 28 1  1.2 0.0  1.18  .95 0.0  1.7  .025
GW 29 1  1.2  1.65  1.18  .95  1.65  1.7  .025
GW 30 2 -1.57 0.0  1.7 -.31 0.0  1.7  .025
GW 31 2 -1.57  1.65  1.7 -.31  1.65  1.7  .025
GW 32 2 -1.57 0.0  1.7 -1.57  1.65  1.7  .025
GW 33 2  .95 0.0  1.7  .95  1.65  1.7  .025
GW 34 2 -1.65 0.0  .4 -.22 0.0  .79  .025
GW 35 2 -1.57 0.0  1.7 -.31  .83  1.7  .025
GW 36 1 -1.65 0.0  .4 -1.65  .83  .79  .025
GW 37 2 -.31  .83  1.7  .95  1.65  1.7  .025
GW 38 2  .95 0.0  1.7 -.31  .83  1.7  .025
GW 39 2 -.31  .83  1.7 -1.57  1.65  1.7  .025
GW 40 2 -.22 0.0  .79  1.2 0.0  1.18  .025
GW 41 2  1.2 0.0  .4 -.22 0.0  .79  .025
GW 42 2 -.22 0.0  .79 -1.65 0.0  1.18  .025
GW 43 2 -.31 0.0  1.7  .95 0.0  1.7  .025
GW 44 2 -.22 0.0  1.18  1.2 0.0  1.18  .025
GW 45 1 -.31 0.0  1.7 -.22 0.0  1.18  .025
GW 46 1 -.22 0.0  1.18 -.22 0.0  .79  .025
GW 47 2 -.22 0.0  .4  1.2 0.0  .4  .025
GW 48 1 -.22 0.0  .79 -.22 0.0  .4  .025
GW 49 1 -1.65  .83  .79 -1.65  1.65  1.18  .025
GW 50 1 -1.65  .83  .79 -1.65 0.0  1.18  .025
GW 51 1 -1.65  .83  .79 -1.65  1.65  .4  .025
GW 52 2  1.2  1.65  1.18 -.22  1.65  .79  .025
GW 53 2 -.22  1.65  .79 -1.65  1.65  .4  .025
GW 54 2 -1.65  1.65  1.18 -.22  1.65  .79  .025
GW 55 2 -.22  1.65  .79  1.2  1.65  .4  .025
GW 56 2 -.31  1.65  1.7  .95  1.65  1.7  .025
GW 57 2 -.22  1.65  1.18  1.2  1.65  1.18  .025
GW 58 2 -.22  1.65  .4  1.2  1.65  .4  .025
GW 59 1 -.22  1.65  .4 -.22  1.65  .79  .025
GW 60 1 -.22  1.65  .79 -.22  1.65  1.18  .025
GW 61 1 -.22  1.65  1.18 -.31  1.65  1.7  .025
GW 62 1 -.31  1.65  1.7 -.31  .83  1.7  .025
GW 63 1 -.31 0.0  1.7 -.31  .83  1.7  .025
GW 64 1  1.2  1.65  1.18  1.89  .865  1.105  .025
GW 65 1  1.89  .865  1.105  2.58  .08  1.03  .025
GW 66 1  2.58  1.58  1.03  1.89  .865  1.105  .025
GW 67 2  1.89  .865  1.105  1.2 0.0  1.18  .025
GW 68 1  1.2 0.0  .4  1.89  .04  .715  .025
GW 69 1  1.89  .04  .715  2.58  .08  1.03  .025
GW 70 1  2.58  .08  .4  1.89  .04  .715  .025
GW 71 1  1.89  .04  .715  1.2 0.0  1.18  .025
GW 72 1  2.58  1.58  .4  1.89  1.615  .79  .025
GW 73 1  1.89  1.615  .79  1.2  1.65  1.18  .025
GW 74 1  1.2  1.65  .4  1.89  1.615  .79  .025
GW 75 1  1.89  1.615  .79  2.58  1.58  1.03  .025
GW 76 2 -1.65 0.0  .4 -.225  .825  .4  .025
GW 77 2 -.225  .825  .4  1.2  1.65  .4  .025
GW 78 3 -1.65  1.65  .4 -.225  .825  .4  .025
GW 79 2 -.225  .825  .4  1.2 0.0  .4  .025
GW 80 1  2.58  1.58  .4  1.89  .79  .4  .025
GW 81 1  1.89  .79  .4  1.2 0.0  .4  .025
GW 82 2  1.2  1.65  .4  1.89  .79  .4  .025
GW 83 1  1.89  .79  .4  2.58  .08  .4  .025
GW 84 2 -1.65  .825  .4 -1.65 0.0  .4  .025
GW 85 2 -1.8  .825  .4 -1.8 0.0  .4  .025
'Why this wire ? GW 86 1 -7.  .825  .4 -6.85  .825  .4  .025
GW 87 1 -1.8  .825  .4 -1.65  .825  .4  .025

GW 88 5 -.31  .83  1.7 -.31  .83  2.90  .005
GW 100 1 -.31  .83  2.90 -.31  .83  3.00  .005
GW 89 3 -.31  .83  3.00 -.31  .83  3.8  .001
GE 1

EK
LD 5 0 0 0 25000000

SY L=48.05uH
LD 6 100 1  1 250 L

GN 2 0 0 0 13  0.005 0.0 0.0

FR 0 1 0 0 7.05 1
EX 0 88  1  0  1.0 0.0

EN
