CM Dual band  (7 /3,6) dipol with L
CE
SY len7=10.93
SY len3=13.43
GW 1 21  len7 0.0  15.0 -len7 0.0  15.0  .0008
GW 2 2  len7 0.0  15.0  len3 0.0  15.0  .0008
GW 3 2 -len7 0.0  15.0 -len3 0.0  15.0  .0008
GE 0
LD 6 2  1  1 150 120uH 0.15pF
LD 6 3  1  1 150 120uH 0.15pF
GN 2 0 0 0 13 .005

'FR 0 1 0 0 3.61 1
FR 0 1 0 0 7.05 1

EX 0 1  11  0  1.0 0.0
EN
