CM Fractal 1 BW>0.9 MHz
CE
GW	1	4	-1.838e-17	-0.1	5	6.126e-18	0.1	5	8.e-4
GW	2	1	6.126e-18	0.1	5	-0.1	0.1	5	8.e-4
GW	3	1	-0.1	0.1	5	-0.1	0.2	5	8.e-4
GW	4	4	-0.1	0.2	5	0.1	0.2	5	8.e-4
GW	5	1	0.1	0.2	5	0.1	0.3	5	8.e-4
GW	6	1	0.1	0.3	5	1.838e-17	0.3	5	8.e-4
GW	7	4	1.838e-17	0.3	5	3.063e-17	0.5	5	8.e-4
GW	8	1	3.063e-17	0.5	5	-0.1	0.5	5	8.e-4
GW	9	1	-0.1	0.5	5	-0.1	0.6	5	8.e-4
GW	10	4	-0.1	0.6	5	0.1	0.6	5	8.e-4
GW	11	1	0.1	0.6	5	0.1	0.7	5	8.e-4
GW	12	1	0.1	0.7	5	4.288e-17	0.7	5	8.e-4
GW	13	4	4.288e-17	0.7	5	5.513e-17	0.9	5	8.e-4
GW	14	1	5.513e-17	0.9	5	-0.1	0.9	5	8.e-4
GW	15	1	-0.1	0.9	5	-0.1	1	5	8.e-4
GW	16	4	-0.1	1	5	0.1	1	5	8.e-4
GW	17	1	0.1	1	5	0.1	1.1	5	8.e-4
GW	18	1	0.1	1.1	5	6.738e-17	1.1	5	8.e-4
GW	19	4	6.738e-17	1.1	5	7.963e-17	1.3	5	8.e-4
GW	20	1	7.963e-17	1.3	5	-0.1	1.3	5	8.e-4
GW	21	1	-0.1	1.3	5	-0.1	1.4	5	8.e-4
GW	22	4	-0.1	1.4	5	0.1	1.4	5	8.e-4
GW	23	1	0.1	1.4	5	0.1	1.5	5	8.e-4
GW	24	1	0.1	1.5	5	9.189e-17	1.5	5	8.e-4
GW	25	4	9.189e-17	1.5	5	1.041e-16	1.7	5	8.e-4
GW	26	1	-1.838e-17	-0.1	5	0.1	-0.1	5	8.e-4
GW	27	1	0.1	-0.1	5	0.1	-0.2	5	8.e-4
GW	28	4	0.1	-0.2	5	-0.1	-0.2	5	8.e-4
GW	29	1	-0.1	-0.2	5	-0.1	-0.3	5	8.e-4
GW	30	1	-0.1	-0.3	5	-5.513e-17	-0.3	5	8.e-4
GW	31	4	-5.513e-17	-0.3	5	-9.189e-17	-0.5	5	8.e-4
GW	32	1	-9.189e-17	-0.5	5	0.1	-0.5	5	8.e-4
GW	33	1	0.1	-0.5	5	0.1	-0.6	5	8.e-4
GW	34	4	0.1	-0.6	5	-0.1	-0.6	5	8.e-4
GW	35	1	-0.1	-0.6	5	-0.1	-0.7	5	8.e-4
GW	36	1	-0.1	-0.7	5	-1.286e-16	-0.7	5	8.e-4
GW	37	4	-1.286e-16	-0.7	5	-1.654e-16	-0.9	5	8.e-4
GW	38	1	-1.654e-16	-0.9	5	-0.1	-0.9	5	8.e-4
GW	39	1	-0.1	-0.9	5	-0.1	-1	5	8.e-4
GW	40	4	-0.1	-1	5	0.1	-1	5	8.e-4
GW	41	1	0.1	-1	5	0.1	-1.1	5	8.e-4
GW	42	1	0.1	-1.1	5	-2.021e-16	-1.1	5	8.e-4
GW	43	4	-2.021e-16	-1.1	5	-2.389e-16	-1.3	5	8.e-4
GW	44	1	-2.389e-16	-1.3	5	-0.1	-1.3	5	8.e-4
GW	45	1	-0.1	-1.3	5	-0.1	-1.4	5	8.e-4
GW	46	4	-0.1	-1.4	5	0.1	-1.4	5	8.e-4
GW	47	1	0.1	-1.4	5	0.1	-1.5	5	8.e-4
GW	48	1	0.1	-1.5	5	-2.757e-16	-1.5	5	8.e-4
GW	49	4	-2.757e-16	-1.5	5	0	-1.7	5	8.e-4
GW	50	1	1.041e-16	1.7	5	-0.1	1.7	5	8.e-4
GW	51	1	-0.1	1.7	5	-0.1	1.8	5	8.e-4
GW	52	4	-0.1	1.8	5	0.1	1.8	5	8.e-4
GW	53	1	0.1	1.8	5	0.1	1.9	5	8.e-4
GW	54	1	0.1	1.9	5	0	1.9	5	8.e-4
GW	55	1	0	1.9	5	0	2	5	8.e-4
GW	56	1	0	-1.7	5	-0.1	-1.7	5	8.e-4
GW	57	1	-0.1	-1.7	5	-0.1	-1.8	5	8.e-4
GW	58	4	-0.1	-1.8	5	0.1	-1.8	5	8.e-4
GW	59	1	0.1	-1.8	5	0.1	-1.9	5	8.e-4
GW	60	1	0.1	-1.9	5	0	-1.9	5	8.e-4
GW	61	1	0	-1.9	5	0	-2	5	8.e-4
GE	0
EX	0	1	2	0	1	0
GN	2	0	0	0	13	5.e-3
FR	0	1	0	0	29.6	0
EN
