CM GP 40m by DL2KQ
CE
SY len=15.41
GW 1 40 0.0 0.0  3.1 0.0 0.0  len  .0015
SY Rad=3.73
GW 2 20 0.0 0.0  3.0 0.0  rad  3.0  .0015
GW 3 20 0.0 0.0  3.0  rad 0.0  3.0  .0015
GW 4 20 0.0 0.0  3.0 0.0 -rad  3.0  .0015
GW 5 20 0.0 0.0  3.0 -rad 0.0  3.0  .0015
GW 6 1 0.0 0.0  3.1 0.0 0.0  3.0  .0015
GE 1
EX 0 1  1  0  1.0 0.0
EX 0 6  1  0 -1. 0.0
SY L=2.1uH
LD 6 6  1  1 150 L
GN 1
GN 2 0 0 0 13  0.005 0.0 0.0
FR 0 1 0 0 7.01 1
EN
