CM Line load GP
CE
GW	1	21	0	0	0	0	0	5	0.015
GW	2	1	0	0	5	0.14	0	5	0.015
GW	3	19	0.14	0	5	0.14	0	0.27	0.015
GW	4	1	0.14	0	0.27	0.27	0	0.27	0.015
SY len=16.48
GW	5	126	0.27	0	0.27	0.27	0	len	0.015
GE	1
EX	0	1	1	0	1	0
GN	3	0	0	0	13	5.e-3
FR	0	1	0	0	3.8	0
EN
