CM QQ 21-14(short) MHz
CE
GW 1 11 -3.675E-16 -1.87125  5.12875 1.225E-16  1.87125  5.12875  .0008
GW 2 6 -3.675E-16 -1.87125  8.87125 -3.675E-16 -1.87125  7.0  .0008
GW 3 11 -3.675E-16 -1.87125  8.87125 1.225E-16  1.87125  8.87125  .0008
GW 4 6 1.225E-16  1.87125  8.87125 1.225E-16  1.87125  7.0  .0008
GW 5 11  2.0 -1.775  5.225  2.0  1.775  5.225  .0008
GW 6 6  2.0 -1.775  8.775  2.0 -1.775  7.0  .0008
GW 7 11  2.0 -1.775  8.775  2.0  1.775  8.775  .0008
GW 8 6  2.0  1.775  8.775  2.0  1.775  7.0  .0008
GW 9 6  2.0  1.775  7.0  2.0  1.775  5.225  .0008
GW 10 6 1.225E-16  1.87125  7.0 1.225E-16  1.87125  5.12875  .0008
GW 11 6  2.0 -1.775  7.0  2.0 -1.775  5.225  .0008
GW 12 6 -3.675E-16 -1.87125  7.0 -3.675E-16 -1.87125  5.12875  .0008
GW 13 1  2.0 -1.775  7.0  1.9 -1.65  7.0  .0008
GW 14 1  2.0  1.775  7.0  1.9  1.65  7.0  .0008
GW 15 3  1.9  1.65  7.0  1.9  1.65  7.95  .0008
GW 16 3  1.9  1.65  7.0  1.9  1.65  6.07  .0008
GW 17 3  1.9 -1.65  7.0  1.9 -1.65  7.95  .0008
GW 18 3  1.9 -1.65  7.0  1.9 -1.65  6.07  .0008
GW 19 1 1.225E-16  1.87125  7.0 0.0  1.75  7.0  .0008
GW 20 1 -3.675E-16 -1.87125  7.0 0.0 -1.75  7.0  .0008
GW 21 3 0.0 -1.75  7.0 0.0 -1.75  7.96  .0008
GW 22 3 0.0 -1.75  7.0 0.0 -1.75  6.05  .0008
GW 23 3 0.0  1.75  7.0 0.0  1.75  7.97  .0008
GW 24 3 0.0  1.75  7.0 0.0  1.75  6.03  .0008
GE 1

SY Q=200, L=2.818uH, C=20pF
LD 6 13  1  1 Q L C
LD 6 14  1  1 Q L C
LD 6 19  1  1 Q L C
LD 6 20  1  1 Q L C
LD 5 0 0 0 25000000

GN 2 0 0 0 13  0.005
EX 0 5  6  0  1.0 0.0
FR 0 1 0 0 21.2 1

EN
