CM 75m short Vertical  by DL2KQ
CE
GW 1 50 0.0 0.0 0.0 0.0 0.0  10.0  .001
GW 2 1 0.0 0.0  10.0  .1 0.0  10.0  .001
GW 3 40  .1 0.0  0.0  .1 0.0 8.0  .017
GW 31 10  .1 0.0  8.0  .1 0.0 10.0  .005
SY dl=6.21476	' To tune R-in
GW 4 50 0.1 0.0  10.0  dl 0.0  10-dl  .001

GE 1
SY cap=60pF	' Tune X-in
LD 0 1  1  1 0 0 cap

GN 3 0 0 0 13  0.005
EX 0 1  1  0  1.0 0.0

FR 0 1 0 0 3.795 1

EN
