CM Sloper 160m with LOAD (questionable AGT)
CE
GW 1 9 0.0 0.0  0.0 0.0 0.0  18.0  .025
GW 2 1 0.0 0.0 18.0 0.0 0.0  20.0  .005

SY dx=10
GW 10 9 0.0 0.0  20.0  dx 0.0  20-1.5*dx  .001
GE 1

SY L=60uH
LD 6 10  5  5 100 L

GN 3 0 0 0 13  0.005 0.0 0.0
EX 0 10  1  0  1 0
FR 0 1 0 0 1.91 1
EN
