CM TriHat Hentenna 10m
CE
GW 1 5 -.76  .875  4.75 -.76 -.38  4.75  .005
GW 2 7 -.76 -.875  4.75  .76 0.0  4.75  .005
GW 3 7  .76 0.0  4.75 -.76  .875  4.75  .005
GW 4 5 -.76  .875  3.0 -.76 -.38  3.0  .005
GW 5 7 -.76 -.875  3.0  .76 0.0  3.0  .005
GW 6 7  .76 0.0  3.0 -.76  .875  3.0  .005
GW 7 7 -.76  .875  4.75 -.76  .875  3.0  .005
GW 8 2 -.76 -.38  4.75 -.76 -.875  4.75  .005
GW 9 2 -.76 -.38  3.0 -.76 -.875  3.0  .005
GW 10 7 -.76 -.38  3.0 -.76 -.38  4.75  .005
GE 1
EX 0 7  4  0  1.0 0.0
GN 2 0 0 0 13  0.005
FR 0 1 0 0 28.05 1
EN
