CM VDP 40m with Cap LOAD
CE
sy dy=1.66	'To tune X
GW 1 10 0.0 0.0  14.8 0.0 0.0  25.2  .001
GW 2 2 0.0 0.0  14.8 0.0  dy  14.8  .001
GW 3 1 0.0  dy  14.8  .4  dy  14.8  .001
GW 4 3  .4  dy  14.8  .4 -dy  14.8  .001
GW 5 1  .4 -dy  14.8 0.0 -dy  14.8  .001
GW 6 2 0.0 -dy  14.8 0.0 -.1  14.8  .001
GW 7 2 0.0 0.0  25.2 0.0  dy  25.2  .001
GW 8 1 0.0  dy  25.2  .4  dy  25.2  .001
GW 9 3  .4  dy  25.2  .4 -dy  25.2  .001
GW 10 1  .4 -dy  25.2 0.0 -dy  25.2  .001
GW 11 2 0.0 -dy  25.2 0.0 -.1  25.2  .001
GE 1
GN 2 0 0 0 13  0.005 0.0 0.0
FR 0 1 0 0 7.01 1
EX 0 1  5  0  1.0 0.0
EN
