CM W2EEY with gamma match
CE
GW	1	45	0.099	-0.099	10	2.77	-2.77	10	0.01
GW	2	5	-0.099	-0.099	10	-0.445	-0.445	10	0.01
GW	11	40	-0.445	-0.445	10	-2.77	-2.77	10	0.01

GW	3	45	0.099	0.099	10	2.77	2.77	10	0.01
GW	4	45	-0.099	0.099	10	-2.77	2.77	10	0.01

'GW	10	1	-0.099	0.099	10	-0.099	0	10	.002
'GW	14	1	-0.099	0	10	-0.099	-0.099	10	.002
GW	10	3	-0.099	0.099	10	-0.099	-0.099	10	.01


GW	5	36	2.77	-2.77	10	0.099	-2.77	10	.002
GW	6	36	2.77	2.77	10	0.099	2.77	10	.002
GW	7	36	-2.77	-2.77	10	-0.099	-2.77	10	.002
GW	8	36	-2.77	2.77	10	-0.099	2.77	10	.002

GW	9	3	0.099	0.099	10	0.099	-0.099	10	.002


'GW	12	3	-0.445	-0.445	10	-0.544	-0.346	10	0.01
'GW	13	12	-0.544	-0.346	10	-0.198	0	10	0.01
'GW	15	3	-0.099	0	10	-0.198	0	10	0.01
GE	0
EK
sy cap=77pF	'271pF
LD	0	9	2	2	0	0	cap
'LD	0	15	1	1	0	0	2.e-10''
'EX	0	15	1	0	1	0
EX	0	10	2	0	1	0
GN	-1
FR	0	1	0	0	14.15	0
EN
