CM *** Gruppenstrahler fuer 23cm ***
CM *** mit 6 E. laut DJ1CR ***
CM *** UKW-Berichte (Heft 4/1973)
CE
GW 01,05, 0.002, 0.000, 0.050,  0.108, 0.000, 0.050,  0.0025
GW 02,05,-0.002, 0.000, 0.050, -0.108, 0.000, 0.050,  0.0025
GW 03,05, 0.002, 0.115, 0.050,  0.108, 0.115, 0.050,  0.0025
GW 04,05,-0.002, 0.115, 0.050, -0.108, 0.115, 0.050,  0.0025
GW 05,05, 0.002,-0.115, 0.050,  0.108,-0.115, 0.050,  0.0025
GW 06,05,-0.002,-0.115, 0.050, -0.108,-0.115, 0.050,  0.0025
SM 05,06,-0.200,-0.170, 0.000,  0.200,-0.170, 0.000
SC 00,00, 0.200, 0.170, 0.000, -0.200, 0.170, 0.000
GE
FR 0,1,0,0,1296.
TL 0,01,0,11,-300.,0.115
TL 0,06,0,16,-300.,0.115
TL 0,01,0,21,-300.,0.115
TL 0,06,0,26,-300.,0.115
EX 0,0,01,0, 1.,0
EX 0,0,06,0,-1.,0
LD 5,0,0,0,3.72E+07
PT -1
'PL 3,1,0,3
RP 0,361,2,1000,0.,0.,1.,90.
EN
