CM 2-el 10M: 150-ohm phase line
CM elements longer than 0.5 wl; 50-ohm feed
CE
GW	1	51	-3.5661	0		14.5107	3.56616	0		14.5107	0.0134
GW	2	51	3.68808	-1.3136	14.5107	-3.688	-1.3136	14.5107	0.0134
GE	0

TL	1	26	2	26	150	0

SY X1=-675, X2=-425
LD	4	1	26	26	0	X1
LD	4	2	26	26	0	X2

LD	5	0	0	0	25000000
EX	0	1	26	0	1	0
GN	-1
FR	0	1	0	0	28.5	0
EN
