CM brdzpr 10 6.55x2etc. TL=71 Ohms
CE
GW	1	8	-6.55	0.25	35	-6.55	2.15	35.0	1.6793e-3
GW	2	41	-6.55	2.15	35.0	6.55	2.15	35.0	1.6793e-3
GW	3	8	6.55	2.15	35.0	6.55	0.25	35.0	1.6793e-3
GW	4	8	6.55	-0.1	35.0	6.55	-2.2	35.0	1.67928e-3
GW	5	41	6.55	-2.2	35.0	-6.55	-2.2	35.0	1.67928e-3
GW	6	8	-6.55	-2.2	35.0	-6.55	-0.1	35.0	1.67928e-3
GS	0	0	0.3048		' All in ft.
GE	0
EK
TL	2	21	5	21	71	1.98425643
LD	5	0	0	0	57471265
EX	6	2	21	0	1	0
GN	2	0	0	0	13	5.e-3
FR	0	1	0	0	28.5	0
EN
