CM Capacity-loaded phased EDZs, 10 meters; meters
CM L. B. Cebik, W4RNL                
CE

GW 1, 21, -6.6751, 0.    , 10.668, -1.783 , 0.    , 10.668, .000814
GW 2, 21, -1.783 , 0.    , 10.668, 1.78613, 0.    , 10.668, .000814
GW 3, 21, 1.78613, 0.    , 10.668, 6.67512, 0.    , 10.668, .000814
GW 4, 21, -6.6751, -1.524, 10.668, -1.783 , -1.524, 10.668, .000814
GW 5, 21, -1.783 , -1.524, 10.668, 1.78308, -1.524, 10.668, .000814
GW 6, 21, 1.78308, -1.524, 10.668, 6.67512, -1.524, 10.668, .000814
GE 1

TL 5,11,2,11,600.,1.604211

LD 4,2,1,1,0.,-2300.
LD 4,2,21,21,0.,-2300.
LD 4,5,1,1,0.,-2000.
LD 4,5,21,21,0.,-2000.
LD 5,0,0,0,5.7471e7

GN 2,0,0,0,13.,.005

EX 0,5,11,0,1,0.
FR 0,1,0,0,28.5
EN
