CM udp 7.99/7.7/4.31 tl71 3/4"
CE

GW 1 51   -7.99 0     35     7.99 0     35     0.03125
GW 2 51   7.7   -4.31 35     -7.7 -4.31 35     0.03125
GW 3 1    -0.35 0     34.713 0.35 0     34.713 2.67016e-3

GW 9003 1 -0.35 0     27.719 0.35 0     27.719 2.67016e-3

GS 0 0 0.3048		' All in ft.
GE 0
EK

TL 1 26 2 26 71 1.96571705
TL 1 26 3 1 71 0.15742738
TL 3 1 9003 1 71 2.1317806

LD 5 0 0 0 25000000
EX 6 3 1 0 1 0
GN 2 0 0 0 13 5.e-3

FR 0 1 0 0 28.5 0
EN
