CM 438/437/101/122 Antenna Book 56/p204
CE
GW 1 41 -7.684 0      35 7.684  0      35 0.015625
GW 2 2  7.684  0      35 7.684  -0.368 35 0.015625
GW 3 41 7.684  -0.368 35 -7.684 -0.368 35 0.015625
GW 4 2  -7.684 -0.368 35 -7.684 0      35 0.015625
GW 5 41 7.842  -4.28  35 -7.842 -4.28  35 0.015625
GW 6 2  -7.842 -4.28  35 -7.842 -3.912 35 0.015625
GW 7 41 -7.842 -3.912 35 7.842  -3.912 35 0.015625
GW 8 2  7.842  -3.912 35 7.842  -4.28  35 0.015625
GS 0 0 0.3048		' All in ft.
GE 0
EK
TL 3 21 7 21 300 1.35795082
LD 5 1 0 0 57471265.5 0
LD 5 2 0 0 57471265.5 0
LD 5 3 0 0 57471265.5 0
LD 5 4 0 0 57471265.5 0
LD 5 5 0 0 57471265.5 0
LD 5 6 0 0 57471265.5 0
LD 5 7 0 0 57471265.5 0
LD 5 8 0 0 57471265.5 0
EX 6 3 21 0 0.45376716 0.15739709
GN 2 0 0 0 13 5.e-3
FR 0 1 0 0 28.5 0
EN
