CM 2-element diamond-shape small quad, 10 meters, #14 copper
CM L. B. Cebik, W4RNL
CE 
SY R=2.6706e-3
GW 1 21 .3 0 -4.5 4.5 0 -.125 R
GW 2 21 4.5 0 -.125 .86 0 -.125 R
GW 3 1 .86 0 -.125 .86 0 .125 R
GW 4 21 .86 0 .125 4.5 0 .125 R
GW 5 21 4.5 0 .125 0 0 4.5 R
GW 6 21 0 0 4.5 -4.5 0 .125 R
GW 7 21 -4.5 0 .125 -.86 0 .125 R
GW 8 1 -.86 0 .125 -.86 0 -.125 R
GW 9 21 -.86 0 -.125 -4.5 0 -.125 R
GW 10 21 -4.5 0 -.125 -.3 0 -4.5 R
GW 11 3 -.3 0 -4.5 .3 0 -4.5 R
GW 12 21 0 -4.31 -4.5 4.5 -4.31 -.125 R
GW 13 21 4.5 -4.31 -.125 .43 -4.31 -.125 R
GW 14 1 .43 -4.31 -.125 .43 -4.31 .125 R
GW 15 21 .43 -4.31 .125 4.5 -4.31 .125 R
GW 16 21 4.5 -4.31 .125 0 -4.31 4.5 R
GW 17 21 0 -4.31 4.5 -4.5 -4.31 .125 R
GW 18 21 -4.5 -4.31 .125 -.43 -4.31 .125 R
GW 19 1 -.43 -4.31 .125 -.43 -4.31 -.125 R
GW 20 21 -.43 -4.31 -.125 -4.5 -4.31 -.125 R
GW 21 21 -4.5 -4.31 -.125 0 -4.31 -4.5 R
GS 0 0 .3048
GE 0
EX 0 11 2 0 1 0
LD 5 0 0 0 5.8001e7
FR 0 1 0 0 28.5 1
EN

