CM 2-element square small quad, 10 meters, #14 copper
CM L. B. Cebik, W4RNL
CE 
SY R=2.6706e-03
GW 1 21 -3.46 0 -3.46 3.46 0 -3.46 R
GW 2 10 3.46 0 -3.46 3.46 0 -.125 R
GW 3 21 3.46 0 -.125 .84 0 -.125 R
GW 4 1 .84 0 -.125 .84 0 .125 R
GW 5 21 .84 0 .125 3.46 0 .125 R
GW 6 10 3.46 0 .125 3.46 0 3.46 R
GW 7 21 3.46 0 3.46 -3.46 0 3.46 R
GW 8 10 -3.46 0 3.46 -3.46 0 .125 R
GW 9 21 -3.46 0 .125 -.84 0 .125 R
GW 10 1 -.84 0 .125 -.84 0 -.125 R
GW 11 21 -.84 0 -.125 -3.46 0 -.125 R
GW 12 10 -3.46 0 -.125 -3.46 0 -3.46 R
GW 13 21 -3.46 -4.31 -3.46 3.46 -4.31 -3.46 R
GW 14 10 3.46 -4.31 -3.46 3.46 -4.31 -.125 R
GW 15 21 3.46 -4.31 -.125 .48 -4.31 -.125 R
GW 16 1 .48 -4.31 -.125 .48 -4.31 .125 R
GW 17 21 .48 -4.31 .125 3.46 -4.31 .125 R
GW 18 10 3.46 -4.31 .125 3.46 -4.31 3.46 R
GW 19 21 3.46 -4.31 3.46 -3.46 -4.31 3.46 R
GW 20 10 -3.46 -4.31 3.46 -3.46 -4.31 .125 R
GW 21 21 -3.46 -4.31 .125 -.48 -4.31 .125 R
GW 22 1 -.48 -4.31 .125 -.48 -4.31 -.125 R
GW 23 21 -.48 -4.31 -.125 -3.46 -4.31 -.125 R
GW 24 10 -3.46 -4.31 -.125 -3.46 -4.31 -3.46 R
GS 0 0 .3048
GE 0
EX 0 1 11 0 1 0
LD 5 0 0 0 5.8001E7
FR 0 1 0 0 28.5 1
RP 0 1 360 1000 90 0 1 1
EN

