CM Center-loaded Yagi 2 el 5.8/6.08/4.25; 10 meters; meters
CM L. B. Cebik, W4RNL
CE
GW 1, 31, -1.7678, 0.     , 10.668, 1.76784, 0.     , 10.668, .00953
GW 2, 31, -1.8531, -1.2954, 10.668, 1.85318, -1.2954, 10.668, .00953
GE 1
LD 4,1,16,16,.81,243.
LD 4,2,16,16,.81,243.
LD 5,0,0,0,2.5E+07
GN 2,0,0,0,13.,.005
EX 0,1,16,0,1,0.
FR 0,1,0,0,28.5
EN
