CM 40 meters, 2 elements with coils en cap-hats.
CE 
sy len=246.6	'246
sy ref=251.0	'252
GW 1 4 131.5 0 840 131.5 72 840 .625
GW 2 4 131.5 72 840 131.5 116 840 .5625
GW 3 4 131.5 116 840 131.5 160 840 .5
GW 4 4 131.5 160 840 131.5 169 840 .375
GW 5 1 131.5 169 840 131.5 178 840 .375
GW 6 4 131.5 178 840 131.5 len 840 .25

GW 7 4 131.5 178 857.25 131.5 178 840 .094
GW 8 4 131.5 178 840 131.5 178 822.75 .094
GW 9 4 114.5 178 840 131.5 178 840 .094
GW 10 4 131.5 178 840 148.75 178 840 .094

GW 11 4 131.5 -0 840 131.5 -72 840 .625
GW 12 4 131.5 -72 840 131.5 -116 840 .5625
GW 13 4 131.5 -116 840 131.5 -160 840 .5
GW 14 4 131.5 -160 840 131.5 -169 840 .375
GW 15 1 131.5 -169 840 131.5 -178 840 .375
GW 16 4 131.5 -178 840 131.5 -len 840 .25

GW 17 4 131.5 -178 857.25 131.5 -178 840 .094
GW 18 4 131.5 -178 840 131.5 -178 822.75 .094
GW 19 4 148.5 -178 840 131.5 -178 840 .094
GW 20 4 131.5 -178 840 114.25 -178 840 .094

GW 21 2 -131.5 0 840 -131.5 18 840 .6875
GW 22 4 -131.5 18 840 -131.5 72 840 .625
GW 23 4 -131.5 72 840 -131.5 116 840 .5625
GW 24 4 -131.5 116 840 -131.5 160 840 .5
GW 25 4 -131.5 160 840 -131.5 169 840 .375
GW 26 1 -131.5 169 840 -131.5 178 840 .375
GW 27 4 -131.5 178 840 -131.5 ref 840 .25

GW 28 4 -131.5 178 857.25 -131.5 178 840 .094
GW 29 4 -131.5 178 840 -131.5 178 822.75 .094
GW 30 4 -114.25 178 840 -131.5 178 840 .094
GW 31 4 -131.5 178 840 -148.75 178 840 .094

GW 32 2 -131.5 0 840 -131.5 -18 840 .6875
GW 33 4 -131.5 -18 840 -131.5 -72 840 .625
GW 34 4 -131.5 -72 840 -131.5 -116 840 .5625
GW 35 4 -131.5 -116 840 -131.5 -160 840 .5
GW 36 4 -131.5 -160 840 -131.5 -169 840 .375
GW 37 1 -131.5 -169 840 -131.5 -178 840 .375
GW 38 4 -131.5 -178 840 -131.5 -ref 840 .25

GW 39 4 -131.5 -178 857.25 -131.5 -178 840 .094
GW 40 4 -131.5 -178 840 -131.5 -178 822.75 .094
GW 41 4 -148.75 -178 840 -131.5 -178 840 .094
GW 42 4 -131.5 -178 840 -114.25 -178 840 .094

GS 0 0 .02540
GE 1
EK
GN 0 0 0 0 13 .005

LD 5 0 0 0 2.4938E7
LD 0 5 1 1 3.53 .00001293 0
LD 0 15 1 1 3.53 .00001293 0
LD 0 26 1 1 3.53 .00001293 0
LD 0 37 1 1 3.53 .00001293 0

EX 0 1 1 0 1 0	' Split V-source
EX 0 11 1 0 -1 0

FR 0 1 0 0 7.1 1
EN
