CM linear loaded dipole
CE
GW 1 60 -6.64 0 0    -0.1 0 0    3.367e-3
GW 2 2  -0.1  0 0    -0.1 0 0.25 3.367e-3
GW 3 13 -0.1  0 0.25 -1.5 0 0.25 3.367e-3
GW 4 2  -1.5  0 0.25 -1.5 0 0.5  3.367e-3
GW 5 27 -1.5  0 0.5  1.5  0 0.5  3.367e-3
GW 6 2  1.5   0 0.5  1.5  0 0.25 3.367e-3
GW 7 13 1.5   0 0.25 0.1  0 0.25 3.367e-3
GW 8 2  0.1   0 0.25 0.1  0 0    3.367e-3
GW 9 60 0.1   0 0    6.64 0 0    3.367e-3
GS 0 0 0.3048		' All in ft.
GE 0
EK
LD 5 0 0 0 57471265.5 0
EX 6 5 14 0 1 0
GN -1
FR 0 1 0 0 28.5 0
EN
