CM Helical wound dipole
CE
GW 1 1 0 4.0000000 0 2.0000000 1.9999999 3.4641016 .40433070
GW 2 1 2.0000000 1.9999999 3.4641016 4.0000000 -1.999999 3.4641016 .40433070
GW 3 1 4.0000000 -1.999999 3.4641016 6.0000000 -4.000000 0 .40433070
GW 4 1 6.0000000 -4.000000 0 8.0000000 -1.999999 -3.464101 .40433070
GW 5 1 8.0000000 -1.999999 -3.464101 10.000000 1.9999999 -3.464101 .40433070
GW 6 1 10.000000 1.9999999 -3.464101 12.000000 4.0000000 0 .40433070
GW 7 1 12.000000 4.0000000 0 14.000000 1.9999999 3.4641016 .40433070
GW 8 1 14.000000 1.9999999 3.4641016 16.000000 -1.999999 3.4641016 .40433070
GW 9 1 16.000000 -1.999999 3.4641016 18.000000 -4.000000 0 .40433070
GW 10 1 18.000000 -4.000000 0 20.000000 -1.999999 -3.464101 .40433070
GW 11 1 20.000000 -1.999999 -3.464101 22.000000 1.9999999 -3.464101 .40433070
GW 12 1 22.000000 1.9999999 -3.464101 24.000000 4.0000000 0 .40433070
GW 13 1 24.000000 4.0000000 0 26.000000 1.9999999 3.4641016 .40433070
GW 14 1 26.000000 1.9999999 3.4641016 28.000000 -1.999999 3.4641016 .40433070
GW 15 1 28.000000 -1.999999 3.4641016 30.000000 -4.000000 0 .40433070
GW 16 1 30.000000 -4.000000 0 32.000000 -1.999999 -3.464101 .40433070
GW 17 1 32.000000 -1.999999 -3.464101 34.000000 1.9999999 -3.464101 .40433070
GW 18 1 34.000000 1.9999999 -3.464101 36.000000 4.0000000 0 .40433070
GW 19 1 36.000000 4.0000000 0 38.000000 1.9999999 3.4641016 .40433070
GW 20 1 38.000000 1.9999999 3.4641016 40.000000 -1.999999 3.4641016 .40433070
GW 21 1 40.000000 -1.999999 3.4641016 42.000000 -4.000000 0 .40433070
GW 22 1 42.000000 -4.000000 0 44.000000 -1.999999 -3.464101 .40433070
GW 23 1 44.000000 -1.999999 -3.464101 46.000000 1.9999999 -3.464101 .40433070
GW 24 1 46.000000 1.9999999 -3.464101 48.000000 4.0000000 0 .40433070
GW 25 1 48.000000 4.0000000 0 50.000000 1.9999999 3.4641016 .40433070
GW 26 1 50.000000 1.9999999 3.4641016 52.000000 -1.999999 3.4641016 .40433070
GW 27 1 52.000000 -1.999999 3.4641016 54.000000 -4.000000 0 .40433070
GW 28 1 54.000000 -4.000000 0 56.000000 -1.999999 -3.464101 .40433070
GW 29 1 56.000000 -1.999999 -3.464101 58.000000 1.9999999 -3.464101 .40433070
GW 30 1 58.000000 1.9999999 -3.464101 60.000000 4.0000000 0 .40433070
GW 31 1 60.000000 4.0000000 0 62.000000 1.9999999 3.4641016 .40433070
GW 32 1 62.000000 1.9999999 3.4641016 64.000000 -1.999999 3.4641016 .40433070
GW 33 1 64.000000 -1.999999 3.4641016 66.000000 -4.000000 0 .40433070
GW 34 1 66.000000 -4.000000 0 68.000000 -1.999999 -3.464101 .40433070
GW 35 1 68.000000 -1.999999 -3.464101 70.000000 1.9999999 -3.464101 .40433070
GW 36 1 70.000000 1.9999999 -3.464101 72.000000 4.0000000 0 .40433070
GW 37 1 72.000000 4.0000000 0 74.000000 1.9999999 3.4641016 .40433070
GW 38 1 74.000000 1.9999999 3.4641016 76.000000 -1.999999 3.4641016 .40433070
GW 39 1 76.000000 -1.999999 3.4641016 78.000000 -4.000000 0 .40433070
GW 40 1 78.000000 -4.000000 0 80.000000 -1.999999 -3.464101 .40433070
GW 41 1 80.000000 -1.999999 -3.464101 82.000000 1.9999999 -3.464101 .40433070
GW 42 1 82.000000 1.9999999 -3.464101 84.000000 4.0000000 0 .40433070
GW 43 1 84.000000 4.0000000 0 86.000000 1.9999999 3.4641016 .40433070
GW 44 1 86.000000 1.9999999 3.4641016 88.000000 -1.999999 3.4641016 .40433070
GW 45 1 88.000000 -1.999999 3.4641016 90.000000 -4.000000 0 .40433070
GW 46 1 90.000000 -4.000000 0 92.000000 -1.999999 -3.464101 .40433070
GW 47 1 92.000000 -1.999999 -3.464101 94.000000 1.9999999 -3.464101 .40433070
GW 48 1 94.000000 1.9999999 -3.464101 96.000000 4.0000000 0 .40433070
GW 49 1 96.000000 4.0000000 0 98.000000 1.9999999 3.4641016 .40433070
GW 50 1 98.000000 1.9999999 3.4641016 100.00000 -1.999999 3.4641016 .40433070
GW 51 1 100.00000 -1.999999 3.4641016 102.00000 -4.000000 0 .40433070
GW 52 1 102.00000 -4.000000 0 104.00000 -1.999999 -3.464101 .40433070
GW 53 1 104.00000 -1.999999 -3.464101 106.00000 1.9999999 -3.464101 .40433070
GW 54 1 106.00000 1.9999999 -3.464101 108.00000 4.0000000 0 .40433070
GW 55 1 108.00000 4.0000000 0 110.00000 1.9999999 3.4641016 .40433070
GW 56 1 110.00000 1.9999999 3.4641016 112.00000 -1.999999 3.4641016 .40433070
GS 0 0 .02540
GE 0
EK
EX 0 29 1 0 1 0
LD 5 0 0 0 5.8001E7
FR 0 1 0 0 28.5 1
