CM 2 el square quad, one lin load.
CE
sy R=2.67e-3	' radius
GW	1	21	-3.46	0	-3.46	3.46	0	-3.46	R
GW	2	10	3.46	0	-3.46	3.46	0	-0.125	R
GW	3	21	3.46	0	-0.125	0.84	0	-0.125	R
GW	4	1	0.84	0	-0.125	0.84	0	0.125	R
GW	5	21	0.84	0	0.125	3.46	0	0.125	R
GW	6	10	3.46	0	0.125	3.46	0	3.46	R
GW	7	21	3.46	0	3.46	-3.46	0	3.46	R
GW	8	10	-3.46	0	3.46	-3.46	0	0.125	R
GW	9	21	-3.46	0	0.125	-0.84	0	0.125	R
GW	10	1	-0.84	0	0.125	-0.84	0	-0.125	R
GW	11	21	-0.84	0	-0.125	-3.46	0	-0.125	R
GW	12	10	-3.46	0	-0.125	-3.46	0	-3.46	R
GW	13	21	-3.46	-4.31	-3.46	3.46	-4.31	-3.46	R
GW	14	10	3.46	-4.31	-3.46	3.46	-4.31	-0.125	R
GW	15	21	3.46	-4.31	-0.125	0.48	-4.31	-0.125	R
GW	16	1	0.48	-4.31	-0.125	0.48	-4.31	0.125	R
GW	17	21	0.48	-4.31	0.125	3.46	-4.31	0.125	R
GW	18	10	3.46	-4.31	0.125	3.46	-4.31	3.46	R
GW	19	21	3.46	-4.31	3.46	-3.46	-4.31	3.46	R
GW	20	10	-3.46	-4.31	3.46	-3.46	-4.31	0.125	R
GW	21	21	-3.46	-4.31	0.125	-0.48	-4.31	0.125	R
GW	22	1	-0.48	-4.31	0.125	-0.48	-4.31	-0.125	R
GW	23	21	-0.48	-4.31	-0.125	-3.46	-4.31	-0.125	R
GW	24	10	-3.46	-4.31	-0.125	-3.46	-4.31	-3.46	R
GS	0	0	0.3048		' All in ft.
GE	0
LD	5	0	0	0	57471265.5	0
EX	6	1	11	0	1	0
GN	-1
FR	0	1	0	0	28.5	0
EN
