CM Omni dipol 144 with gamma-match, by DL2KQ
CE
GW 1 2 0 0.06 -0.145 0 7.5e-3 -0.145 3.e-3
GW 2 3 0 -0.058 -0.145 0 -0.15 -0.062 3.e-3
GW 3 3 0 -0.15 -0.062 0 -0.15 0.062 3.e-3
GW 4 3 0 -0.15 0.062 0 -0.062 0.15 3.e-3
GW 5 2 0 -0.062 0.15 0 -6.e-3 0.15 3.e-3
GW 6 3 0 0.062 0.15 0 0.15 0.062 3.e-3
GW 7 3 0 0.15 0.062 0 0.15 -0.062 3.e-3
GW 8 3 0 0.15 -0.062 0 0.06 -0.145 3.e-3
GW 9 2 0 0.062 0.15 0 6.e-3 0.15 3.e-3
GW 10 2 0 7.5e-3 -0.145 0 -0.058 -0.145 3.e-3
GW 11 1 0 0.06 -0.145 0 0.06 -0.125 1.e-3
GW 12 2 0 0.06 -0.125 0 7.5e-3 -0.125 1.e-3
GW 13 1 0 7.5e-3 -0.125 0 7.5e-3 -0.145 1.e-3
GE 0
LD 0 13 1 1 0 0 31e-12
LD 5 0 0 0 25000000 0
EX 0 13 1 0 1 0
GN -1
FR 0 1 0 0 145 0
EN
