CM Coner Reflector antenna 2m
CE
GW 1 10 0.0 0.0  .5034 0.0 0.0 -.5034  .005
GW 2 20 -1.03 0.0  1.0 -1.03 0.0 -1.  .0008
GW 3 2 -1.03 0.0  1.0 -.888579  .141421  1.0  .0008
GW 4 2 -1.03 0.0  1.0 -.888579 -.141421  1.0  .0008
GW 5 2 -1.03 0.0 -1. -.888579  .141421 -1.  .0008
GW 6 2 -1.03 0.0 -1. -.888579 -.141421 -1.  .0008
GW 7 2 -.888579 -.141421  1.0 -.747157 -.282843  1.0  .0008
GW 8 2 -.747157 -.282843  1.0 -.605736 -.424264  1.0  .0008
GW 9 2 -.605736 -.424264  1.0 -.464314 -.565686  1.0  .0008
GW 10 2 -.464314 -.565686  1.0 -.322893 -.707107  1.0  .0008
GW 11 2 -.322893 -.707107  1.0 -.181472 -.848528  1.0  .0008
GW 12 2 -.181472 -.848528  1.0 -.04005 -.98995  1.0  .0008
GW 13 2 -.04005 -.98995  1.0  .101371 -1.131371  1.0  .0008
GW 14 2  .101371 -1.131371  1.0  .242793 -1.272793  1.0  .0008
GW 15 2  .242793 -1.272793  1.0  .384214 -1.414214  1.0  .0008
GW 16 2 -.888579 -.141421 -1. -.747157 -.282843 -1.  .0008
GW 17 2 -.747157 -.282843 -1. -.605736 -.424264 -1.  .0008
GW 18 2 -.605736 -.424264 -1. -.464314 -.565686 -1.  .0008
GW 19 2 -.464314 -.565686 -1. -.322893 -.707107 -1.  .0008
GW 20 2 -.322893 -.707107 -1. -.181472 -.848528 -1.  .0008
GW 21 2 -.181472 -.848528 -1. -.04005 -.98995 -1.  .0008
GW 22 2 -.04005 -.98995 -1.  .101371 -1.131371 -1.  .0008
GW 23 2  .101371 -1.131371 -1.  .242793 -1.272793 -1.  .0008
GW 24 2  .242793 -1.272793 -1.  .384214 -1.414214 -1.  .0008
GW 25 2 -.888579  .141421  1.0 -.747157  .282843  1.0  .0008
GW 26 2 -.747157  .282843  1.0 -.605736  .424264  1.0  .0008
GW 27 2 -.605736  .424264  1.0 -.464314  .565686  1.0  .0008
GW 28 2 -.464314  .565686  1.0 -.322893  .707107  1.0  .0008
GW 29 2 -.322893  .707107  1.0 -.181472  .848528  1.0  .0008
GW 30 2 -.181472  .848528  1.0 -.04005  .98995  1.0  .0008
GW 31 2 -.04005  .98995  1.0  .101371  1.131371  1.0  .0008
GW 32 2  .101371  1.131371  1.0  .242793  1.272793  1.0  .0008
GW 33 2  .242793  1.272793  1.0  .384214  1.414214  1.0  .0008
GW 34 2 -.888579  .141421 -1. -.747157  .282843 -1.  .0008
GW 35 2 -.747157  .282843 -1. -.605736  .424264 -1.  .0008
GW 36 2 -.605736  .424264 -1. -.464314  .565686 -1.  .0008
GW 37 2 -.464314  .565686 -1. -.322893  .707107 -1.  .0008
GW 38 2 -.322893  .707107 -1. -.181472  .848528 -1.  .0008
GW 39 2 -.181472  .848528 -1. -.04005  .98995 -1.  .0008
GW 40 2 -.04005  .98995 -1.  .101371  1.131371 -1.  .0008
GW 41 2  .101371  1.131371 -1.  .242793  1.272793 -1.  .0008
GW 42 20  .384214 -1.414214  1.0  .384214 -1.414214 -1.  .0008
GW 43 2  .242793  1.272793 -1.  .384214  1.414214 -1.  .0008
GW 44 20 -.888579 -.141421  1.0 -.888579 -.141421 -1.  .0008
GW 45 20 -.747157 -.282843  1.0 -.747157 -.282843 -1.  .0008
GW 46 20 -.605736 -.424264  1.0 -.605736 -.424264 -1.  .0008
GW 47 20 -.464314 -.565686  1.0 -.464314 -.565686 -1.  .0008
GW 48 20 -.322893 -.707107  1.0 -.322893 -.707107 -1.  .0008
GW 49 20 -.181472 -.848528  1.0 -.181472 -.848528 -1.  .0008
GW 50 20  .384214  1.414214  1.0  .384214  1.414214 -1.  .0008
GW 51 20 -.04005 -.98995  1.0 -.04005 -.98995 -1.  .0008
GW 52 20  .101371 -1.131371  1.0  .101371 -1.131371 -1.  .0008
GW 53 20  .242793 -1.272793  1.0  .242793 -1.272793 -1.  .0008
GW 54 20 -.888579  .141421  1.0 -.888579  .141421 -1.  .0008
GW 55 20 -.747157  .282843  1.0 -.747157  .282843 -1.  .0008
GW 56 20 -.605736  .424264  1.0 -.605736  .424264 -1.  .0008
GW 57 20 -.464314  .565686  1.0 -.464314  .565686 -1.  .0008
GW 58 20 -.322893  .707107  1.0 -.322893  .707107 -1.  .0008
GW 59 20 -.181472  .848528  1.0 -.181472  .848528 -1.  .0008
GW 60 20 -.04005  .98995  1.0 -.04005  .98995 -1.  .0008
GW 61 20  .101371  1.131371  1.0  .101371  1.131371 -1.  .0008
GW 62 20  .242793  1.272793  1.0  .242793  1.272793 -1.  .0008
GS 0 0 1.0
GE 0
EX 0 1  5  0  1.0 0.0
FR 0 1 0 0 145 1
RP 0  1  361  1000  90  0  1  1 
EN
