CM Discon  band 55-200MHz
CE
GW 1 1 0.0 0.0 0.0 0.0 0.0  .1  .005
GW 2 9 0.0 0.0 0.0  .53033 -.5 -1.  .005
GW 3 9 0.0 0.0 0.0 -.53033  .45 -1.  .005
GW 4 5 0.0 0.0  .1 -.46  .46  .1  .005
GW 5 5 0.0 0.0  .1  .46 -.46  .1  .005
GW 6 5 0.0 0.0  .1  .46  .44  .1  .005
GW 7 5 0.0 0.0  .1 -.46 -.46  .1  .005
GW 8 9 0.0 0.0 0.0  .5  .53033 -1.  .005
GW 9 9 0.0 0.0 0.0 -.4 -.53033 -1.  .005
GW 10 5 0.0 0.0  .1  .64 0.0  .1  .005
GW 11 5 0.0 0.0  .1 -.64 0.0  .1  .005
GW 12 5 0.0 0.0  .1 0.0 -.64  .1  .005
GW 13 5 0.0 0.0  .1 0.0  .64  .1  .005
GW 14 9 0.0 0.0 0.0  .65 0.0 -1.  .005
GW 15 8 0.0 0.0 0.0 -.6 0.0 -1.  .005
GW 16 9 0.0 0.0 0.0 0.0  .65 -1.  .005
GW 17 9 0.0 0.0 0.0 0.0 -.65 -1.  .005
GE 0
FR 0 1 0 0 50.5 1
EX 0 1  1  0  1.0 0.0
EN
