CM 145 /435 MHz GP  for mobil
CE
GW 1 29 0.0 0.0 0.0 0.0 0.0 0.491 .0015
GE 1
LD 0 1  15  15 0.0E0 3.0E-8 0.0E0
LD 5 0 0 0 25000000
GN 3 0 0 0 13  0.005
FR 0 1 0 0 435 1
EX 0 1  1  0  1.0 0.0
EN
