CM Japanese Hentenna Loop 6m
CE
sy z1=3.3
sy z2=6.4
GW 1 11 0.0 -.5  z1 0.0  .5  z1  .005
GW 2 11 0.0 -.5  z2 0.0  .5  z2  .005
GW 3 7 0.0 -.5  z1 0.0 -.5  4.1  .001
GW 4 25 0.0 -.5  4.1 0.0 -.5  z2  .001
GW 5 7 0.0  .5  z1 0.0  .5  4.1  .001
GW 6 25 0.0  .5  4.1 0.0  .5  z2  .001
GW 7 11 0.0 -.5  4.1 0.0  .5  4.1  .001
GE 1
EX 0 7  6  0  1.0 0.0
LD 5 1 0 0 25000000
GN 2 0 0 0 13  0.005 0.0 0.0
FR 0 1 0 0 50.1 1
EN
