CM Twin Delta Loop
CE
SY dY=0.265
SY dZ=0.126
GW	1	8	0	-dY	-dz	0	0	-5e-3	5.e-3
GW	2	8	0	0	-5e-3	0	dY	-dz	5.e-3
GW	3	8	0	dY	-dz	0	dY	dz	5.e-3
GW	4	8	0	dY	dz	0	0	5e-3	5.e-3
GW	5	8	0	0	5e-3	0	-dY	dz	5.e-3
GW	6	8	0	-dY	dz	0	-dY	-dz	5.e-3	
GW	7	1	0	0	5e-3	0	0	-5e-3	5.e-3
GE	0
EK
LD	5	0	0	0	25000000	0
GN	-1
EX	0	7	1	0	1	0
FR	0	1	0	0	435	1
EN
