CM 160 m vertical with 50 ohm grounded tower
CE

GW 2 28 0.0 0.0  16.6  12.0 0.0  11.0  .001
GW 3 28 0.0 0.0  16.6 -12. 0.0  11.0  .001
GW 4 28 0.0 0.0  16.6  12.0 -2.5  11.0  .001
GW 5 28 0.0 0.0  16.6  12.0  2.5  11.0  .001
GW 6 28 0.0 0.0  16.6 -12. -2.5  11.0  .001
GW 7 28 0.0 0.0  16.6 -12.  2.5  11.0  .001

SY hgh=6.3
GW 1 30 0.0 0.0 0.0 0.0 0.0  hgh .025
GW 8 30 0.0 0.0  hgh 0.0 0.0  14  .025
GW 18 12 0.0 0.0  14 0.0 0.0  16.6  .005
GW 9 1 0.0 0.0 hgh 0.4 0.0  hgh  .005
GW 10 30 0.4 0.0 0.0 0.4 0.0  hgh .001
GE 1

SY cap=1685pF
LD 0 10  1  1 0 0 cap

LD 5 0 0 0 25000000
GN 3 0 0 0 13  0.005	' MiniNec ground

EX 0 10  1  0  1.0 0.0
FR 0 1 0 0 1.835 1

EN
