CM 80m double right-angle delta
CE
GW	1	46	0	-36.45408	0	0	0	0	8.e-4
GW	2	34	0	-36.45408	0	0	-18.22704	18.22704	8.e-4
GW	3	34	0	-18.22704	18.22704	0	0	0.3048	8.e-4
GW	4	34	0	36.45408	0	0	18.22704	18.22704	8.e-4
GW	5	34	0	18.22704	18.22704	0	0	0.3048	8.e-4
GW	6	1	0	0	0.3048	0	0	0	8.e-4
GW	7	46	0	0	0	0	36.45408	0	8.e-4
GE	0
EX	0	6	1	0	1	0
GN	-1
FR	0	1	0	0	3.6	0
EN
