CM CB 5/8 lambda
CE
SY len=6.7777
GW	1	50	0.0	0.0	3.061	0.0	0.0	3+len	.01
GW	2	5	0.0	0.0	3.0	.4	.3	3.0	.002
GW	3	5	0.0	0.0	3.0	0.0	-.5	3.0	.002
GW	4	5	0.0	0.0	3.0	-.4	.3	3.0	.002
GW	5	1	0.0	0.0	3.0	0.0	0.0	3.061	.01
GE 1
EX 0 5  1  0  1.0 0.0
EK
SY ind=2.98 uH
LD	0	5	1	1	0	ind	0
GN	2	0	0	0	13	0.005
FR 0 1 0 0 27 1
RP 0  181  1  1000  90 0 -1  1 
EN
