CM 
CE
sy len=40.5
sy cap=2000pF
GW 1 21  -len 0.0  20.0 len 0.0  20.0  .0008
GE 1
EX 0 1  11  0  1.0 0.0
LD 0 1  11  11 0 0 cap
GN 2 0 0 0 13  0.005 0.0 0.0
FR 0 1 0 0 1.825 1
RP 0  181  1  1000  90 0 -1  1 
EN
