CM short 160m dipole With L
CE
GW 1 20 0.0  18.0  20.0 0.0 -18.  20.0  .012
GE 1
EX 0 1  10  0  1.0 0.0
LD 6 1 9 9 100 3.95E-5
LD 6 1 11 11 100 3.95E-5
GN 1
GD 2 0 0 0 13  0.005 0.0 0.0
FR 0 1 0 0 1.91 1
EN
