CM Dipole 20 m
CE
GW 1 20 0.0 -5.2  20.0 0.0  5.2  20.0  .001
GE 1
EX 0 1  10  0  1.0 0.0
GN 2 0 0 0 13  0.005 0.0 0.0
FR 0 1 0 0 14.05 1
EN
