CM Dipole with end feed 0,25lambda
CE
GW 1 20 0.0 -10.2  11.1 0.0  10.2  11.1  .0015
GW 2 10 0.0 -10.2  11.1 0.0 -10.2  .75  .0008
GW 3 1 0.0 -10.2  .75 0.0 -10.8  .75  .0008
GW 4 10 0.0 -10.8  .75 0.0 -10.8  11.1  .0008
GE 1
EX 0 3  1  0  1.0 0.0
LD 5 1 0 0 57471264
LD 5 2 0 0 57471264
LD 5 3 0 0 57471264
LD 5 4 0 0 57471264
GN 2 0 0 0 13  0.005 0.0 0.0
FR 0 1 0 0 7.05 1
EN
