CM GP with grounded tower ang gamma match 
CE
sy H=1.37, C=175pF
GW 1 3 0.0 0.0 0.0 0.0 0.0  H  .0125
GW 2 9 0.0 0.0  H 0.0 0.0  7.5  .0125
GW 3 1 0.0 0.0  H  .2 0.0  H  .006
GW 4 3  .2 0.0 0.0  .2 0.0  H  .006
GE 1
EX 0 4  1  0  1.0 0.0
LD 0 4  1  1 0 0 C
GN 3 0 0 0 13  0.005
FR 0 1 0 0 10.13 1
EN
