CM GP 40m
CE
GW 1 10 0.0 0.0  20.0 0.0 0.0  30.6  .0015
GW 2 10 0.0 0.0  20.0 0.0  10.6  20.0  .0015
GW 3 10 0.0 0.0  20.0  10.6 0.0  20.0  .0015
GW 4 10 0.0 0.0  20.0 0.0 -10.6  20.0  .0015
GW 5 10 0.0 0.0  20.0 -10.6 0.0  20.0  .0015
GE 1
EX 0 1  1  0  1.0 0.0
GN 2 0 0 0 13  0.005 0.0 0.0
FR 0 1 0 0 7.01 1
EN
