CM Horizontal collinear 14 MHz 400 Ohm feed
CE
GW 1 25  .05 0.0  10.0  13.28 0.0  10.0  .0008
GW 2 25 -.05 0.0  10.0 -13.28 0.0  10.0  .0008

SY L1=2.52, L2=0.81
GW 3 6 -.05 0.0  10.0 -.05 0  10-L1  .0008
GW 4 6  .05 0.0  10.0  .05 0  10-L1  .0008
GW 5 1 -.05 0  10-L1  .05 0  10-L1  .0008
GW 6 3 -.05 0  10-L1 -.05 0  10-(L1+L2)  .0008
GW 7 3  .05 0  10-L1  .05 0  10-(L1+L2)  .0008
GW 8 1 -.05 0  10-(L1+L2)  .05 0  10-(L1+L2)  .0008
GE 1

EX 0 5  1  0  1.0 0.0
GN 1
GD 2 0 0 0 13  0.005 0.0 0.0
FR 0 1 0 0 14.15 1
EN
