CM Hight Quad by EU1TT
CE
GW 1 13  .9 0.0  16.7  .9 0.0  20.0  .0008
GW 2 7 -.9 0.0  16.7  .9 0.0  16.7  .0008
GW 3 13 -.9 0.0  16.7 -.9 0.0  20.0  .0008
GW 4 7 -.9 0.0  23.3  .9 0.0  23.3  .0008
GW 5 13 -.9 0.0  20.0 -.9 0.0  23.3  .0008
GW 6 13  .9 0.0  20.0  .9 0.0  23.3  .0008
GW 7 7 -.9 0.0  20.0  .9 0.0  20.0  .0008
GE 0
EX 0 7  4  0  1.0 0.0
FR 0 1 0 0 28.5 1
EN
