CM Lazy-H Antenna
CE
GW 1 20 0.0 -10.539  25.27 0.0 -.1  25.27  .0008
GW 2 20 0.0  10.539  14.73 0.0  .1  14.73  .0008
GW 3 20 0.0  .1  25.27 0.0  10.539  25.27  .0008
GW 4 20 0.0 -.1  14.73 0.0 -10.539  14.73  .0008
GW 5 10 0.0  .1  14.73 0.0  .1  20.0  .0008
GW 6 10 0.0 -.1  14.73 0.0 -.1  20.0  .0008
GW 7 10 0.0 -.1  20.0 0.0 -.1  25.27  .0008
GW 8 10 0.0  .1  20.0 0.0  .1  25.27  .0008
GW 9 1 0.0  .1  20.0 0.0 -.1  20.0  .0008
GE 0
EX 0 9  1  0  1.0 0.0
FR 0 1 0 0 14.05 1
EN
