CM Vert Loop 20m
CE
GW 1 11 0.0 -2.856  17.144 0.0  2.856  17.144  .005
GW 2 11 0.0  2.856  17.144 0.0  2.856  22.856  .005
GW 3 11 0.0  2.856  22.856 0.0 -2.856  22.856  .005
GW 4 11 0.0 -2.856  22.856 0.0 -2.856  17.144  .005
GE 0
EX 0 1  6  0  1.0 0.0
FR 0 1 0 0 14.05 1
EN
