CM Vertical collinear 28 MHz (75 ohm)
CE
GW 1 26 0.0 0.0  3.958 0.0 0.0  10.385  .0008
GW 2 15 0.0 0.0  3.907 0.0 0.0  .1  .0008
GW 3 6 0.0 0.0  3.907  1.339 0.0  3.907  .0008
GW 4 6 0.0 0.0  3.958  1.339 0.0  3.958  .0008
GW 5 2  1.339 0.0  3.907  1.768 0.0  3.907  .0008
GW 6 2  1.339 0.0  3.958  1.768 0.0  3.958  .0008
GW 7 1  1.768 0.0  3.907  1.768 0.0  3.958  .0008
GW 8 1 0.0 0.0 0.0 0.0 0.0  .1  .0008
GE 1
EX 0 8  1  0  1.0 0.0
GN 3 0 0 0 13  0.005 0.0 0.0	' MiniNec ground !
FR 0 1 0 0 28.2 1
EN
