CM 5/8 lamda vertical
CE
GW 1 1 0.0 0.0 0.0 0.0 0.0  .05  .001
GW 2 60 0.0 0.0  .05 0.0 0.0  13.35  .001
GW 3 1 0.0 0.0  .05 0.0  .05  .05  .001
GW 4 1 0.0  .05  .05 0.0  .05 0.0  .001
GS 0 0 1.0
GE 1
EX 0 4  1  0  1.0 0.0

sy C=30.9pF
LD 0 3  1  1 0 0 C
sy R=0.91, L=2.06uH
LD 0 1  1  1 R L 0

GN 3 0 0 0 13  0.005
FR 0 1 0 0 14.05 1
EN
