CM  VP2e 40m by RW4PL  (75 ohm)
CE
GW 1 11 0.0 0.0  11.0 0.0 -19.89  4.75  .0008
GW 2 11 0.0 0.0  11.0 0.0  19.89  4.75  .0008
GE 1
EX 0 2  6  0  1.0 0.0
LD 5 1 0 0 57471264
LD 5 2 0 0 57471264
GN 2 0 0 0 13  0.005 0.0 0.0
FR 0 1 0 0 7.05 1
EN
