CM Wide band Inv v  80 m by EU1TT
CE
sy len=16.5
GW 1 1  .1 0.0  27.0 -.1 0.0  27.0  .0008
GW 2 20  .1 0.0  27.0  len 0.0  17.0  .0008
GW 3 20 -.1 0.0 27.0 -len 0.0 17.0 .0008
GW 4 10  .1 0.0  27.0  6.0  3.0  20.0  .0008
GW 5 10  .1 0.0  27.0  6.0 -3.  20.0  .0008
GW 6 12  6.0  3.0  20.0  len 0.0  17.0  .0008
GW 7 12  6.0 -3.  20.0  len 0.0  17.0  .0008
GW 8 10 -.1 0.0  27.0 -6.  3.0  20.0  .0008
GW 9 10 -.1 0.0  27.0 -6. -3.  20.0  .0008
GW 10 10 -6.  3.0  20.0 -len 0.0  17.0  .0008
GW 11 10 -6. -3.  20.0 -len 0.0  17.0  .0008
GE 1
EX 0 1  1  0  1.0 0.0
GN 2 0 0 0 13  0.005 0.0 0.0
FR 0 1 0 0 3.65 1
EN
