CM 12ele yagi 430MHz
CE
SY len=0.1454
GW	1	1	-0.01	0	-len	0.01	0	-len	3e-3
GW	2	9	0.01	0	-len	0.01	0	len	4.8e-3
GW	3	1	0.01	0	len	-0.01	0	len	3e-3
GW	4	9	-0.01	0	len	-0.01	0	-len	4.8e-3

SY ref=0.1648
GW	5	11	-0.11	0	-ref	-0.11	0	ref	4.8e-3

SY d1=0.1386
GW	6	9	0.07	0	-d1	0.07	0	d1	4.8e-3
GW	7	9	0.15	0	-d1	0.15	0	d1	4.8e-3

SY d2=0.1419
GW	8	9	0.24	0	-d2	0.24	0	d2	4.8e-3
GW	9	9	0.36	0	-d2	0.36	0	d2	4.8e-3

SY d3=.13
GW	10	9	0.5	0	-d3	0.5	0	d3	4.8e-3
GW	11	9	0.65	0	-d3	0.65	0	d3	4.8e-3
GW	12	9	0.82	0	-d3	0.82	0	d3	4.8e-3
GW	13	9	0.99	0	-d3	0.99	0	d3	4.8e-3
GW	14	8	1.15	0	-0.135	1.15	0	0.135	4.8e-3
GW	15	8	1.35	0	-0.13	1.35	0	0.13	4.8e-3
GE	0

EK
EX	0	4	5	0	1	0
GN	-1
FR	0	1	0	0	435	0
EN
