CM 216CP 16 El CP 2m Experimental
CM Single point feed
CM 12.3 dBic (RHCP) at 145.9 MHz
CM 18 dB F/B at 145.9 MHz
CE WB0DGF  2-4-06

GW 1 6     -55.750  -20.375  0.000   -55.750   -0.5       0.000    0.28175
GW 2 6     -55.750  -0.50    0.000   -55.750   -0.5      17.625    0.28175
GW 3 1     -55.750  -0.50    0.000   -55.750    0.5       0.000    0.28175
GW 4 6     -55.750   0.50    0.000   -55.750    0.5     -17.625    0.28175
GW 5 6     -55.750   0.50    0.000   -55.750   20.375     0.000    0.28175
GW 6 11    -72.375 -19.625   0.000   -72.375   19.625     0.000    0.094
GW 7 11    -44.000 -17.000   0.000   -44.000   17.000     0.000    0.094
GW 8 11    -29.375 -17.500   0.000   -29.375   17.500     0.000    0.094
GW 9 11     -8.875 -17.375   0.000    -8.875   17.375     0.000    0.094
GW 10 11    15.625 -17.250   0.000    15.625   17.250     0.000    0.094
GW 11 11    44.000 -17.125   0.000    44.000   17.125     0.000    0.094
GW 12 11    72.375 -17.000   0.000    72.375   17.000     0.000    0.094
GW 26 11   -72.875   0.000 -20.000   -72.875    0.000    20.000    0.094
GW 27 11   -44.500   0.000 -18.500   -44.500    0.000    18.500    0.094
GW 28 11   -29.875   0.000 -17.500   -29.875    0.000    17.500    0.094
GW 29 11    -9.375   0.000 -17.375    -9.375    0.000    17.375    0.094
GW 30 11    16.125   0.000 -17.250    16.125    0.000    17.250    0.094
GW 31 11    44.500   0.000 -17.125    44.500    0.000    17.125    0.094
GW 32 11    72.875   0.000 -17.000    72.875    0.000    17.000    0.094
GS 0 0 0.0254
GE 0

EX 0 3 1 0 1 0
FR 0 10 0 0 145.0 0.2
EN

