CM  4x2SA13 with stacking frames and feed cables.
CE

GW  1   6    0.000  -513.792     0.000     0.000  -400.        0.000    3.000
GW  2  10    0.000  -400.        0.000     0.000   -52.5       0.000    3.000
GW  3   3    0.000   -52.5       0.000     0.000    52.5       0.000    3.000
GW  4  10    0.000    52.5       0.000     0.000   400.        0.000    3.000
GW  5   6    0.000   400.        0.000     0.000   513.792     0.000    3.000
GW  6   6    0.000  -498.395   230.000     0.000  -400.      230.000    3.000
GW  7  10    0.000  -400.      230.000     0.000   -52.5     230.000    3.000
GW  8   3    0.000   -52.5     230.000     0.000    52.5     230.000    3.000
GW  9  10    0.000    52.5     230.000     0.000   400.      230.000    3.000
GW 10   6    0.000   400.      230.000     0.000   498.395   230.000    3.000
GW 11   6    0.000  -476.639   330.000     0.000  -400.      330.000    5.000
GW 12  10    0.000  -400.      330.000     0.000   -52.5     330.000    5.000
GW 13   3    0.000   -52.5     330.000     0.000    52.5     330.000    5.000
GW 14  10    0.000    52.5     330.000     0.000   400.      330.000    5.000
GW 15   6    0.000   400.      330.000     0.000   476.639   330.000    5.000
GW 16   6    0.000  -466.986   753.000     0.000  -400.      753.000    5.000
GW 17  10    0.000  -400.      753.000     0.000   -52.5     753.000    5.000
GW 18   3    0.000   -52.5     753.000     0.000    52.5     753.000    5.000
GW 19  10    0.000    52.5     753.000     0.000   400.      753.000    5.000
GW 20   6    0.000   400.      753.000     0.000   466.986   753.000    5.000
GW 21   6    0.000  -452.135  1455.000     0.000  -400.     1455.000    5.000
GW 22  10    0.000  -400.     1455.000     0.000   -52.5    1455.000    5.000
GW 23   3    0.000   -52.5    1455.000     0.000    52.5    1455.000    5.000
GW 24  10    0.000    52.5    1455.000     0.000   400.     1455.000    5.000
GW 25   6    0.000   400.     1455.000     0.000   452.135  1455.000    5.000
GW 26   6    0.000  -443.198  2254.000     0.000  -400.     2254.000    5.000
GW 27  10    0.000  -400.     2254.000     0.000   -52.5    2254.000    5.000
GW 28   3    0.000   -52.5    2254.000     0.000    52.5    2254.000    5.000
GW 29  10    0.000    52.5    2254.000     0.000   400.     2254.000    5.000
GW 30   6    0.000   400.     2254.000     0.000   443.198  2254.000    5.000
GW 31   6    0.000  -448.029  3097.000     0.000  -400.     3097.000    3.000
GW 32  10    0.000  -400.     3097.000     0.000   -52.5    3097.000    3.000
GW 33   3    0.000   -52.5    3097.000     0.000    52.5    3097.000    3.000
GW 34  10    0.000    52.5    3097.000     0.000   400.     3097.000    3.000
GW 35   6    0.000   400.     3097.000     0.000   448.029  3097.000    3.000
GW 36   6    0.000  -443.826  3964.000     0.000  -400.     3964.000    3.000
GW 37  10    0.000  -400.     3964.000     0.000   -52.5    3964.000    3.000
GW 38   3    0.000   -52.5    3964.000     0.000    52.5    3964.000    3.000
GW 39  10    0.000    52.5    3964.000     0.000   400.     3964.000    3.000
GW 40   6    0.000   400.     3964.000     0.000   443.826  3964.000    3.000
GW 41   6    0.000  -438.792  4853.000     0.000  -400.     4853.000    3.000
GW 42  10    0.000  -400.     4853.000     0.000   -52.5    4853.000    3.000
GW 43   3    0.000   -52.5    4853.000     0.000    52.5    4853.000    3.000
GW 44  10    0.000    52.5    4853.000     0.000   400.     4853.000    3.000
GW 45   6    0.000   400.     4853.000     0.000   438.792  4853.000    3.000
GW 46   6    0.000  -435.361  5797.000     0.000  -400.     5797.000    3.000
GW 47  10    0.000  -400.     5797.000     0.000   -52.5    5797.000    3.000
GW 48   3    0.000   -52.5    5797.000     0.000    52.5    5797.000    3.000
GW 49  10    0.000    52.5    5797.000     0.000   400.     5797.000    3.000
GW 50   6    0.000   400.     5797.000     0.000   435.361  5797.000    3.000
GW 51   6    0.000  -436.720  6726.000     0.000  -400.     6726.000    3.000
GW 52  10    0.000  -400.     6726.000     0.000   -52.5    6726.000    3.000
GW 53   3    0.000   -52.5    6726.000     0.000    52.5    6726.000    3.000
GW 54  10    0.000    52.5    6726.000     0.000   400.     6726.000    3.000
GW 55   6    0.000   400.     6726.000     0.000   436.720  6726.000    3.000
GW 56   6    0.000  -442.371  7560.000     0.000  -400.     7560.000    3.000
GW 57  10    0.000  -400.     7560.000     0.000   -52.5    7560.000    3.000
GW 58   3    0.000   -52.5    7560.000     0.000    52.5    7560.000    3.000
GW 59  10    0.000    52.5    7560.000     0.000   400.     7560.000    3.000
GW 60   6    0.000   400.     7560.000     0.000   442.371  7560.000    3.000
GW 61   6    0.000  -444.256  8350.000     0.000  -400.     8350.000    3.000
GW 62  10    0.000  -400.     8350.000     0.000   -52.5    8350.000    3.000
GW 63   3    0.000   -52.5    8350.000     0.000    52.5    8350.000    3.000
GW 64  10    0.000    52.5    8350.000     0.000   400.     8350.000    3.000
GW 65   6    0.000   400.     8350.000     0.000   444.256  8350.000    3.000

GM   0    0     0      0        0          35.       0         0        0
GM   0    0     0.000  0.000    45.000     0.000     0.000     0.000    0.000
GM 100    1     0.000  0.000    90.000     0.000     0.000    25.000    0.000
GM   0    0     0      0        0          0          0       -12.5     0

GW 200    2     0.000     0.000  -200.000     0.000     0.000  -150.000   17.000
GW 201    3     0.000     0.000  -150.000     0.000     0.000   -25.000   17.000
GW 202    1     0.000     0.000   -25.000     0.000     0.000    25.000   17.000
GW 203    3     0.000     0.000    25.000     0.000     0.000   180.000   17.000
GW 204    1     0.000     0.000   180.000     0.000     0.000   280.000   17.000
GW 205    1     0.000     0.000   280.000     0.000     0.000   380.000   17.000
GW 206    3     0.000     0.000   380.000     0.000     0.000   703.000   17.000
GW 207    1     0.000     0.000   703.000     0.000     0.000   803.000   17.000
GW 208    4     0.000     0.000   803.000     0.000     0.000  1385.000   17.000
GW 209    1     0.000     0.000  1385.000     0.000     0.000  1525.000   17.000
GW 210    3     0.000     0.000  1525.000     0.000     0.000  2154.000   17.000
GW 211    1     0.000     0.000  2154.000     0.000     0.000  2354.000   17.000
GW 212    3     0.000     0.000  2354.000     0.000     0.000  2997.000   17.000
GW 213    1     0.000     0.000  2997.000     0.000     0.000  3197.000   17.000
GW 214    3     0.000     0.000  3197.000     0.000     0.000  3864.000   17.000
GW 215    1     0.000     0.000  3864.000     0.000     0.000  4064.000   17.000
GW 216    3     0.000     0.000  4064.000     0.000     0.000  4753.000   17.000
GW 217    1     0.000     0.000  4753.000     0.000     0.000  4953.000   17.000
GW 218    3     0.000     0.000  4953.000     0.000     0.000  5697.000   17.000
GW 219    1     0.000     0.000  5697.000     0.000     0.000  5897.000   17.000
GW 220    3     0.000     0.000  5897.000     0.000     0.000  6626.000   17.000
GW 221    1     0.000     0.000  6626.000     0.000     0.000  6826.000   17.000
GW 222    3     0.000     0.000  6826.000     0.000     0.000  7460.000   17.000
GW 223    1     0.000     0.000  7460.000     0.000     0.000  7660.000   17.000
GW 224    3     0.000     0.000  7660.000     0.000     0.000  8300.000   17.000
GW 225    1     0.000     0.000  8300.000     0.000     0.000  8400.000   17.000

GM  0    0     0.000     0.000     0.000  2100.000     0.000 -3200.       0.000

GW 230    8     0.000     0.000     0.000   800.000     0.000     0.000   25.000
GW 231   10   800.000     0.000     0.000  1300.000     0.000     0.000   25.000
GW 232   26  1300.000     0.000  -600.     1300.000     0.000   600.      20.000

GM  0    0     0.000     0.000     0.000     0.000  2100.000     0.000    0.000
GM  0    0     0.000     0.000     0.000     0.000     0.000  3200.       0.000

GW 240   16  2100.000  2100.000  -200.000  1850.000  1850.000  -200.000   10.000
GW 241   10  1850.000  1850.000  -200.000   100.000   100.000  -200.000   10.000
GW 242    8   100.000   100.000  -200.000     0.000     0.000  -200.000   10.000
GW 243   32  2100.     2100.     -200.     2480.     2480.     -200.       3. 

GM  0    0     0.000     0.000     0.000     0.000     0.000 -3200.       0.000

GX  250  110     
GS  0    0  0.001
GE  0

FR  0    1    0   0  144

EK

LD  5    1    0   0 0.26000E+08

EX  0    8    2   0  0.10000E+01  -0.0253
EX  0  108    2   0 -0.10000E+01  -0.0253
EX  0  258    2   0 -0.10000E+01   0.0253
EX  0  358    2   0  0.10000E+01   0.0253
EX  0  508    2   0  0.10000E+01  -0.0253
EX  0  608    2   0 -0.10000E+01  -0.0253
EX  0  758    2   0 -0.10000E+01   0.0253
EX  0  858    2   0  0.10000E+01   0.0253

EN


