CM *** 4 * 20 E-FR fuer 432 MHz modifiziert ***
CM *** Elemente in X-Achse , MAX-LOOP in Z-Achse ***
CM *** Stockungsabstand = 1150 mm Y-Achse ***
CM *** Stockungsabstand = 1200 mm X-Achse ***
CM *** Reflektoren auf 364mm gekuerzt ***
CE
GW 01,7, 0.182, 0.055, 0.000,   -0.182, 0.055, 0.000,  0.0025
GW 02,7, 0.182, 0.140, 0.000,   -0.182, 0.140, 0.000,  0.0025
GW 03,7, 0.182,-0.055, 0.000,   -0.182,-0.055, 0.000,  0.0025
GW 04,7, 0.182,-0.140, 0.000,   -0.182,-0.140, 0.000,  0.0025
GW 05,7, 0.160, 0.000, 0.130,   -0.160, 0.0,   0.130,  0.004
GW 06,7, 0.155, 0.000, 0.227,   -0.155, 0.0,   0.227,  0.0025
GW 07,7, 0.148, 0.000, 0.325,   -0.148, 0.0,   0.325,  0.0025
GW 08,7, 0.143, 0.0,   0.422,   -0.143, 0.0,   0.422,  0.0025
GW 09,7, 0.141, 0.0,   0.520,   -0.141, 0.0,   0.520,  0.0025
GW 10,7, 0.140, 0.0,   0.617,   -0.140, 0.0,   0.617,  0.0025
GW 11,7, 0.140, 0.0,   0.720,   -0.140, 0.0,   0.720,  0.0025
GW 12,7, 0.140, 0.0,   0.828,   -0.140, 0.0,   0.828,  0.0025
GW 13,7, 0.138, 0.0,   0.963,   -0.138, 0.0,   0.963,  0.0025
GW 14,7, 0.138, 0.0,   1.110,   -0.138, 0.0,   1.110,  0.0025
GW 15,7, 0.138, 0.0,   1.260,   -0.138, 0.0,   1.260,  0.0025
GW 16,7, 0.138, 0.0,   1.415,   -0.138, 0.0,   1.415,  0.0025
GW 17,7, 0.135, 0.0,   1.570,   -0.135, 0.0,   1.570,  0.0025
GW 18,7, 0.135, 0.0,   1.730,   -0.135, 0.0,   1.730,  0.0025
GW 19,7, 0.135, 0.0,   1.895,   -0.135, 0.0,   1.895,  0.0025
GW 20,7, 0.135, 0.0,   2.065,   -0.135, 0.0,   2.065,  0.0025
GW 21,7, 0.135, 0.0,   2.235,   -0.135, 0.0,   2.235,  0.0025
GW 22,7, 0.135, 0.0,   2.405,   -0.135, 0.0,   2.405,  0.0025
GW 23,7, 0.133, 0.0,   2.585,   -0.133, 0.0,   2.585,  0.0025
GW 24,7, 0.182, 1.205, 0.000,   -0.182, 1.205, 0.000,  0.0025
GW 25,7, 0.182, 1.290, 0.000,   -0.182, 1.290, 0.000,  0.0025
GW 26,7, 0.182, 1.095, 0.000,   -0.182, 1.095, 0.000,  0.0025
GW 27,7, 0.182, 1.010, 0.000,   -0.182, 1.010, 0.000,  0.0025
GW 28,7, 0.160, 1.150, 0.130,   -0.160, 1.150, 0.130,  0.004
GW 29,7, 0.155, 1.150, 0.227,   -0.155, 1.150, 0.227,  0.0025
GW 30,7, 0.148, 1.150, 0.325,   -0.148, 1.150, 0.325,  0.0025
GW 31,7, 0.143, 1.150, 0.422,   -0.143, 1.150, 0.422,  0.0025
GW 32,7, 0.141, 1.150, 0.520,   -0.141, 1.150, 0.520,  0.0025
GW 33,7, 0.140, 1.150, 0.617,   -0.140, 1.150, 0.617,  0.0025
GW 34,7, 0.140, 1.150, 0.720,   -0.140, 1.150, 0.720,  0.0025
GW 35,7, 0.140, 1.150, 0.828,   -0.140, 1.150, 0.828,  0.0025
GW 36,7, 0.138, 1.150, 0.963,   -0.138, 1.150, 0.963,  0.0025
GW 37,7, 0.138, 1.150, 1.110,   -0.138, 1.150, 1.110,  0.0025
GW 38,7, 0.138, 1.150, 1.260,   -0.138, 1.150, 1.260,  0.0025
GW 39,7, 0.138, 1.150, 1.415,   -0.138, 1.150, 1.415,  0.0025
GW 40,7, 0.135, 1.150, 1.570,   -0.135, 1.150, 1.570,  0.0025
GW 41,7, 0.135, 1.150, 1.730,   -0.135, 1.150, 1.730,  0.0025
GW 42,7, 0.135, 1.150, 1.895,   -0.135, 1.150, 1.895,  0.0025
GW 43,7, 0.135, 1.150, 2.065,   -0.135, 1.150, 2.065,  0.0025
GW 44,7, 0.135, 1.150, 2.235,   -0.135, 1.150, 2.235,  0.0025
GW 45,7, 0.135, 1.150, 2.405,   -0.135, 1.150, 2.405,  0.0025
GW 46,7, 0.133, 1.150, 2.585,   -0.133, 1.150, 2.585,  0.0025
GW 47,7, 1.382, 0.055, 0.000,    1.018, 0.055, 0.000,  0.0025
GW 48,7, 1.382, 0.140, 0.000,    1.018, 0.140, 0.000,  0.0025
GW 49,7, 1.382,-0.055, 0.000,    1.018,-0.055, 0.000,  0.0025
GW 50,7, 1.382,-0.140, 0.000,    1.018,-0.140, 0.000,  0.0025
GW 51,7, 1.360, 0.000, 0.130,    1.040, 0.0,   0.130,  0.004
GW 52,7, 1.355, 0.000, 0.227,    1.045, 0.0,   0.227,  0.0025
GW 53,7, 1.348, 0.000, 0.325,    1.052, 0.0,   0.325,  0.0025
GW 54,7, 1.343, 0.0,   0.422,    1.057, 0.0,   0.422,  0.0025
GW 55,7, 1.341, 0.0,   0.520,    1.059, 0.0,   0.520,  0.0025
GW 56,7, 1.340, 0.0,   0.617,    1.060, 0.0,   0.617,  0.0025
GW 57,7, 1.340, 0.0,   0.720,    1.060, 0.0,   0.720,  0.0025
GW 58,7, 1.340, 0.0,   0.828,    1.060, 0.0,   0.828,  0.0025
GW 59,7, 1.338, 0.0,   0.963,    1.062, 0.0,   0.963,  0.0025
GW 60,7, 1.338, 0.0,   1.110,    1.062, 0.0,   1.110,  0.0025
GW 61,7, 1.338, 0.0,   1.260,    1.062, 0.0,   1.260,  0.0025
GW 62,7, 1.338, 0.0,   1.415,    1.062, 0.0,   1.415,  0.0025
GW 63,7, 1.335, 0.0,   1.570,    1.065, 0.0,   1.570,  0.0025
GW 64,7, 1.335, 0.0,   1.730,    1.065, 0.0,   1.730,  0.0025
GW 65,7, 1.335, 0.0,   1.895,    1.065, 0.0,   1.895,  0.0025
GW 66,7, 1.335, 0.0,   2.065,    1.065, 0.0,   2.065,  0.0025
GW 67,7, 1.335, 0.0,   2.235,    1.065, 0.0,   2.235,  0.0025
GW 68,7, 1.335, 0.0,   2.405,    1.065, 0.0,   2.405,  0.0025
GW 69,7, 1.333, 0.0,   2.585,    1.067, 0.0,   2.585,  0.0025
GW 70,7, 1.382, 1.205, 0.000,    1.018, 1.205, 0.000,  0.0025
GW 71,7, 1.382, 1.290, 0.000,    1.018, 1.290, 0.000,  0.0025
GW 72,7, 1.382, 1.095, 0.000,    1.018, 1.095, 0.000,  0.0025
GW 73,7, 1.382, 1.010, 0.000,    1.018, 1.010, 0.000,  0.0025
GW 74,7, 1.360, 1.150, 0.130,    1.040, 1.150, 0.130,  0.004
GW 75,7, 1.355, 1.150, 0.227,    1.045, 1.150, 0.227,  0.0025
GW 76,7, 1.348, 1.150, 0.325,    1.052, 1.150, 0.325,  0.0025
GW 77,7, 1.343, 1.150, 0.422,    1.057, 1.150, 0.422,  0.0025
GW 78,7, 1.341, 1.150, 0.520,    1.059, 1.150, 0.520,  0.0025
GW 79,7, 1.340, 1.150, 0.617,    1.060, 1.150, 0.617,  0.0025
GW 80,7, 1.340, 1.150, 0.720,    1.060, 1.150, 0.720,  0.0025
GW 81,7, 1.340, 1.150, 0.828,    1.060, 1.150, 0.828,  0.0025
GW 82,7, 1.338, 1.150, 0.963,    1.062, 1.150, 0.963,  0.0025
GW 83,7, 1.338, 1.150, 1.110,    1.062, 1.150, 1.110,  0.0025
GW 84,7, 1.338, 1.150, 1.260,    1.062, 1.150, 1.260,  0.0025
GW 85,7, 1.338, 1.150, 1.415,    1.062, 1.150, 1.415,  0.0025
GW 86,7, 1.335, 1.150, 1.570,    1.065, 1.150, 1.570,  0.0025
GW 87,7, 1.335, 1.150, 1.730,    1.065, 1.150, 1.730,  0.0025
GW 88,7, 1.335, 1.150, 1.895,    1.065, 1.150, 1.895,  0.0025
GW 89,7, 1.335, 1.150, 2.065,    1.065, 1.150, 2.065,  0.0025
GW 90,7, 1.335, 1.150, 2.235,    1.065, 1.150, 2.235,  0.0025
GW 91,7, 1.335, 1.150, 2.405,    1.065, 1.150, 2.405,  0.0025
GW 92,7, 1.333, 1.150, 2.585,    1.067, 1.150, 2.585,  0.0025
GE
FR 0,1,0,0,432.
EX 0,5,4,00,1.,0
EX 0,28,4,00,1.,0
EX 0,51,4,00,1.,0
EX 0,74,4,00,1.,0
LD 5,0,0,0,3.72E+07
PT -1
'PL 3,1,0,3
RP 0,181,2,1000,0.,0.,1.,90.
EN
