CM PD1APO, optimized yagi with H reflector and fat elements, design by joop,
CM freq       = 1296.00 - 1310.00 MHz
CM maxlength  =       3.75 mm
CM wrad       =       2.50 mm
CM stacked    = no
CM # elementen=         50
CE End of comments
'GW	3	39	0.056	0.055	0.016	-0.056	0.055	0.016	0.00175
GW	3	13	0.056	0.055	0.016	-0.056	0.055	0.016	0.00175
'GW	4	39	0.056	0.055	-0.016	-0.056	0.055	-0.016	0.00175
GW	4	13	0.056	0.055	-0.016	-0.056	0.055	-0.016	0.00175
'GW	101	13	0.056	0.055	0.016	0.056	0.055	-0.016	0.00175
GW	101	3	0.056	0.055	0.016	0.056	0.055	-0.016	0.00175
'GW	102	13	-0.056	0.055	0.016	-0.056	0.055	-0.016	0.00175
GW	102	3	-0.056	0.055	0.016	-0.056	0.055	-0.016	0.00175
GW 5 5 0.0 0.068 0.0 -0.0485 0.068 0.0 0.0025
GW 6 5 0.0 0.068 0.0 0.0485 0.068 0.0 0.0025
GW 7 5 0.0 0.11 0.0 -0.0475 0.11 0.0 0.0025
GW 8 5 0.0 0.11 0.0 0.0475 0.11 0.0 0.0025
GW 9 5 0.0 0.16 0.0 -0.0465 0.16 0.0 0.0025
GW 10 5 0.0 0.16 0.0 0.0465 0.16 0.0 0.0025
GW 11 5 0.0 0.218 0.0 -0.046 0.218 0.0 0.0025
GW 12 5 0.0 0.218 0.0 0.046 0.218 0.0 0.0025
GW 13 5 0.0 0.283 0.0 -0.045 0.283 0.0 0.0025
GW 14 5 0.0 0.283 0.0 0.045 0.283 0.0 0.0025
GW 15 5 0.0 0.353 0.0 -0.0445 0.353 0.0 0.0025
GW 16 5 0.0 0.353 0.0 0.0445 0.353 0.0 0.0025
GW 17 5 0.0 0.426 0.0 -0.044 0.426 0.0 0.0025
GW 18 5 0.0 0.426 0.0 0.044 0.426 0.0 0.0025
GW 19 5 0.0 0.502 0.0 -0.0435 0.502 0.0 0.0025
GW 20 5 0.0 0.502 0.0 0.0435 0.502 0.0 0.0025
GW 21 5 0.0 0.582 0.0 -0.0435 0.582 0.0 0.0025
GW 22 5 0.0 0.582 0.0 0.0435 0.582 0.0 0.0025
GW 23 5 0.0 0.665 0.0 -0.043 0.665 0.0 0.0025
GW 24 5 0.0 0.665 0.0 0.043 0.665 0.0 0.0025
GW 25 5 0.0 0.751 0.0 -0.0425 0.751 0.0 0.0025
GW 26 5 0.0 0.751 0.0 0.0425 0.751 0.0 0.0025
GW 27 5 0.0 0.841 0.0 -0.0425 0.841 0.0 0.0025
GW 28 5 0.0 0.841 0.0 0.0425 0.841 0.0 0.0025
GW 29 5 0.0 0.933 0.0 -0.042 0.933 0.0 0.0025
GW 30 5 0.0 0.933 0.0 0.042 0.933 0.0 0.0025
GW 31 5 0.0 1.025 0.0 -0.042 1.025 0.0 0.0025
GW 32 5 0.0 1.025 0.0 0.042 1.025 0.0 0.0025
GW 33 5 0.0 1.117 0.0 -0.042 1.117 0.0 0.0025
GW 34 5 0.0 1.117 0.0 0.042 1.117 0.0 0.0025
GW 35 5 0.0 1.209 0.0 -0.0415 1.209 0.0 0.0025
GW 36 5 0.0 1.209 0.0 0.0415 1.209 0.0 0.0025
GW 37 5 0.0 1.301 0.0 -0.0415 1.301 0.0 0.0025
GW 38 5 0.0 1.301 0.0 0.0415 1.301 0.0 0.0025
GW 39 5 0.0 1.393 0.0 -0.0415 1.393 0.0 0.0025
GW 40 5 0.0 1.393 0.0 0.0415 1.393 0.0 0.0025
GW 41 5 0.0 1.485 0.0 -0.041 1.485 0.0 0.0025
GW 42 5 0.0 1.485 0.0 0.041 1.485 0.0 0.0025
GW 43 5 0.0 1.577 0.0 -0.041 1.577 0.0 0.0025
GW 44 5 0.0 1.577 0.0 0.041 1.577 0.0 0.0025
GW 45 5 0.0 1.669 0.0 -0.041 1.669 0.0 0.0025
GW 46 5 0.0 1.669 0.0 0.041 1.669 0.0 0.0025
GW 47 5 0.0 1.761 0.0 -0.0405 1.761 0.0 0.0025
GW 48 5 0.0 1.761 0.0 0.0405 1.761 0.0 0.0025
GW 49 5 0.0 1.853 0.0 -0.0405 1.853 0.0 0.0025
GW 50 5 0.0 1.853 0.0 0.0405 1.853 0.0 0.0025
GW 51 5 0.0 1.945 0.0 -0.0405 1.945 0.0 0.0025
GW 52 5 0.0 1.945 0.0 0.0405 1.945 0.0 0.0025
GW 53 5 0.0 2.037 0.0 -0.04 2.037 0.0 0.0025
GW 54 5 0.0 2.037 0.0 0.04 2.037 0.0 0.0025
GW 55 5 0.0 2.129 0.0 -0.04 2.129 0.0 0.0025
GW 56 5 0.0 2.129 0.0 0.04 2.129 0.0 0.0025
GW 57 5 0.0 2.221 0.0 -0.04 2.221 0.0 0.0025
GW 58 5 0.0 2.221 0.0 0.04 2.221 0.0 0.0025
GW 59 5 0.0 2.313 0.0 -0.04 2.313 0.0 0.0025
GW 60 5 0.0 2.313 0.0 0.04 2.313 0.0 0.0025
GW 61 5 0.0 2.405 0.0 -0.0395 2.405 0.0 0.0025
GW 62 5 0.0 2.405 0.0 0.0395 2.405 0.0 0.0025
GW 63 5 0.0 2.497 0.0 -0.0395 2.497 0.0 0.0025
GW 64 5 0.0 2.497 0.0 0.0395 2.497 0.0 0.0025
GW 65 5 0.0 2.589 0.0 -0.0395 2.589 0.0 0.0025
GW 66 5 0.0 2.589 0.0 0.0395 2.589 0.0 0.0025
GW 67 5 0.0 2.681 0.0 -0.0395 2.681 0.0 0.0025
GW 68 5 0.0 2.681 0.0 0.0395 2.681 0.0 0.0025
GW 69 5 0.0 2.773 0.0 -0.039 2.773 0.0 0.0025
GW 70 5 0.0 2.773 0.0 0.039 2.773 0.0 0.0025
GW 71 5 0.0 2.865 0.0 -0.039 2.865 0.0 0.0025
GW 72 5 0.0 2.865 0.0 0.039 2.865 0.0 0.0025
GW 73 5 0.0 2.957 0.0 -0.039 2.957 0.0 0.0025
GW 74 5 0.0 2.957 0.0 0.039 2.957 0.0 0.0025
GW 75 5 0.0 3.049 0.0 -0.039 3.049 0.0 0.0025
GW 76 5 0.0 3.049 0.0 0.039 3.049 0.0 0.0025
GW 77 5 0.0 3.141 0.0 -0.039 3.141 0.0 0.0025
GW 78 5 0.0 3.141 0.0 0.039 3.141 0.0 0.0025
GW 79 5 0.0 3.233 0.0 -0.0385 3.233 0.0 0.0025
GW 80 5 0.0 3.233 0.0 0.0385 3.233 0.0 0.0025
GW 81 5 0.0 3.325 0.0 -0.0385 3.325 0.0 0.0025
GW 82 5 0.0 3.325 0.0 0.0385 3.325 0.0 0.0025
GW 83 5 0.0 3.417 0.0 -0.0385 3.417 0.0 0.0025
GW 84 5 0.0 3.417 0.0 0.0385 3.417 0.0 0.0025
GW 85 5 0.0 3.509 0.0 -0.0385 3.509 0.0 0.0025
GW 86 5 0.0 3.509 0.0 0.0385 3.509 0.0 0.0025
GW 87 5 0.0 3.601 0.0 -0.0385 3.601 0.0 0.0025
GW 88 5 0.0 3.601 0.0 0.0385 3.601 0.0 0.0025
GW 89 5 0.0 3.693 0.0 -0.0385 3.693 0.0 0.0025
GW 90 5 0.0 3.693 0.0 0.0385 3.693 0.0 0.0025
GW 91 5 0.0 3.785 0.0 -0.038 3.785 0.0 0.0025
GW 92 5 0.0 3.785 0.0 0.038 3.785 0.0 0.0025
GW 93 5 0.0 3.877 0.0 -0.038 3.877 0.0 0.0025
GW 94 5 0.0 3.877 0.0 0.038 3.877 0.0 0.0025
GW 95 5 0.0 3.9745 0.0 -0.038 3.9745 0.0 0.0025
GW 96 5 0.0 3.9745 0.0 0.038 3.9745 0.0 0.0025
GW 97 5 0.0 4.061 0.0 -0.038 4.061 0.0 0.0025
GW 98 5 0.0 4.061 0.0 0.038 4.061 0.0 0.0025
GW 99 5 0.0 4.145 0.0 -0.038 4.145 0.0 0.0025
GW 100 5 0.0 4.145 0.0 0.038 4.145 0.0 0.0025
GW	103	5	-0.075	0.014	-0.0107	0.075	0.014	-0.0107	0.0025
GW	104	5	-0.075	0.014	0.0107	0.075	0.014	0.0107	0.0025
GW	105	5	-0.075	0.014	0.0321	0.075	0.014	0.0321	0.0025
GW	106	5	-0.075	0.014	0.0535	0.075	0.014	0.0535	0.0025
GW	107	5	-0.075	0.014	0.0749	0.075	0.014	0.0749	0.0025
GW	108	5	-0.075	0.014	-0.0321	0.075	0.014	-0.0321	0.0025
GW	109	5	-0.075	0.014	-0.0535	0.075	0.014	-0.0535	0.0025
GW	110	5	-0.075	0.014	-0.0749	0.075	0.014	-0.0749	0.0025
GE 0
'EX 0 4 20 0 1.0 0.0 0.0 0.0
EX 0 4 7 0 1.0 0.0 0.0 0.0
GN -1
FR	0	10	0	0	1296.00	1.0
EN

