CM DL6WU Yagi 100 elements by VK1OD
CE
GW 100 21 0.000000 -0.169295 0.000000 0.000000 0.169295 0.000000 0.001500
GW 101 21 0.138793 -0.166944 0.000000 0.138793 0.166944 0.000000 0.001500
GW 102 21 0.190840 -0.153047 0.000000 0.190840 0.153047 0.000000 0.001500
GW 103 21 0.315754 -0.151549 0.000000 0.315754 0.151549 0.000000 0.001500
GW 104 21 0.464956 -0.149881 0.000000 0.464956 0.149881 0.000000 0.001500
GW 105 21 0.638447 -0.148272 0.000000 0.638447 0.148272 0.000000 0.001500
GW 106 21 0.832757 -0.146840 0.000000 0.832757 0.146840 0.000000 0.001500
GW 107 21 1.040946 -0.145598 0.000000 1.040946 0.145598 0.000000 0.001500
GW 108 21 1.259545 -0.144519 0.000000 1.259545 0.144519 0.000000 0.001500
GW 109 21 1.488553 -0.143574 0.000000 1.488553 0.143574 0.000000 0.001500
GW 110 21 1.727970 -0.142736 0.000000 1.727970 0.142736 0.000000 0.001500
GW 111 21 1.977797 -0.141985 0.000000 1.977797 0.141985 0.000000 0.001500
GW 112 21 2.238034 -0.141305 0.000000 2.238034 0.141305 0.000000 0.001500
GW 113 21 2.508680 -0.140684 0.000000 2.508680 0.140684 0.000000 0.001500
GW 114 21 2.786266 -0.140113 0.000000 2.786266 0.140113 0.000000 0.001500
GW 115 21 3.063851 -0.139584 0.000000 3.063851 0.139584 0.000000 0.001500
GW 116 21 3.341437 -0.139091 0.000000 3.341437 0.139091 0.000000 0.001500
GW 117 21 3.619022 -0.138630 0.000000 3.619022 0.138630 0.000000 0.001500
GW 118 21 3.896608 -0.138198 0.000000 3.896608 0.138198 0.000000 0.001500
GW 119 21 4.174194 -0.137790 0.000000 4.174194 0.137790 0.000000 0.001500
GW 120 21 4.451779 -0.137404 0.000000 4.451779 0.137404 0.000000 0.001500
GW 121 21 4.729365 -0.137037 0.000000 4.729365 0.137037 0.000000 0.001500
GW 122 21 5.006950 -0.136689 0.000000 5.006950 0.136689 0.000000 0.001500
GW 123 21 5.284536 -0.136357 0.000000 5.284536 0.136357 0.000000 0.001500
GW 124 21 5.562122 -0.136040 0.000000 5.562122 0.136040 0.000000 0.001500
GW 125 21 5.839707 -0.135736 0.000000 5.839707 0.135736 0.000000 0.001500
GW 126 21 6.117293 -0.135444 0.000000 6.117293 0.135444 0.000000 0.001500
GW 127 21 6.394878 -0.135164 0.000000 6.394878 0.135164 0.000000 0.001500
GW 128 21 6.672464 -0.134895 0.000000 6.672464 0.134895 0.000000 0.001500
GW 129 21 6.950050 -0.134635 0.000000 6.950050 0.134635 0.000000 0.001500
GW 130 21 7.227635 -0.134385 0.000000 7.227635 0.134385 0.000000 0.001500
GW 131 21 7.505221 -0.134143 0.000000 7.505221 0.134143 0.000000 0.001500
GW 132 21 7.782807 -0.133909 0.000000 7.782807 0.133909 0.000000 0.001500
GW 133 21 8.060392 -0.133682 0.000000 8.060392 0.133682 0.000000 0.001500
GW 134 21 8.337978 -0.133462 0.000000 8.337978 0.133462 0.000000 0.001500
GW 135 21 8.615563 -0.133249 0.000000 8.615563 0.133249 0.000000 0.001500
GW 136 21 8.893149 -0.133042 0.000000 8.893149 0.133042 0.000000 0.001500
GW 137 21 9.170735 -0.132841 0.000000 9.170735 0.132841 0.000000 0.001500
GW 138 21 9.448320 -0.132646 0.000000 9.448320 0.132646 0.000000 0.001500
GW 139 21 9.725906 -0.132455 0.000000 9.725906 0.132455 0.000000 0.001500
GW 140 21 10.003491 -0.132270 0.000000 10.003491 0.132270 0.000000 0.001500
GW 141 21 10.281077 -0.132089 0.000000 10.281077 0.132089 0.000000 0.001500
GW 142 21 10.558663 -0.131913 0.000000 10.558663 0.131913 0.000000 0.001500
GW 143 21 10.836248 -0.131741 0.000000 10.836248 0.131741 0.000000 0.001500
GW 144 21 11.113834 -0.131573 0.000000 11.113834 0.131573 0.000000 0.001500
GW 145 21 11.391419 -0.131409 0.000000 11.391419 0.131409 0.000000 0.001500
GW 146 21 11.669005 -0.131248 0.000000 11.669005 0.131248 0.000000 0.001500
GW 147 21 11.946591 -0.131091 0.000000 11.946591 0.131091 0.000000 0.001500
GW 148 21 12.224176 -0.130938 0.000000 12.224176 0.130938 0.000000 0.001500
GW 149 21 12.501762 -0.130787 0.000000 12.501762 0.130787 0.000000 0.001500
GW 150 21 12.779347 -0.130640 0.000000 12.779347 0.130640 0.000000 0.001500
GW 151 21 13.056933 -0.130496 0.000000 13.056933 0.130496 0.000000 0.001500
GW 152 21 13.334519 -0.130355 0.000000 13.334519 0.130355 0.000000 0.001500
GW 153 21 13.612104 -0.130216 0.000000 13.612104 0.130216 0.000000 0.001500
GW 154 21 13.889690 -0.130080 0.000000 13.889690 0.130080 0.000000 0.001500
GW 155 21 14.167276 -0.129947 0.000000 14.167276 0.129947 0.000000 0.001500
GW 156 21 14.444861 -0.129816 0.000000 14.444861 0.129816 0.000000 0.001500
GW 157 21 14.722447 -0.129687 0.000000 14.722447 0.129687 0.000000 0.001500
GW 158 21 15.000032 -0.129561 0.000000 15.000032 0.129561 0.000000 0.001500
GW 159 21 15.277618 -0.129437 0.000000 15.277618 0.129437 0.000000 0.001500
GW 160 21 15.555204 -0.129314 0.000000 15.555204 0.129314 0.000000 0.001500
GW 161 21 15.832789 -0.129194 0.000000 15.832789 0.129194 0.000000 0.001500
GW 162 21 16.110375 -0.129076 0.000000 16.110375 0.129076 0.000000 0.001500
GW 163 21 16.387960 -0.128960 0.000000 16.387960 0.128960 0.000000 0.001500
GW 164 21 16.665546 -0.128846 0.000000 16.665546 0.128846 0.000000 0.001500
GW 165 21 16.943132 -0.128734 0.000000 16.943132 0.128734 0.000000 0.001500
GW 166 21 17.220717 -0.128623 0.000000 17.220717 0.128623 0.000000 0.001500
GW 167 21 17.498303 -0.128514 0.000000 17.498303 0.128514 0.000000 0.001500
GW 168 21 17.775888 -0.128407 0.000000 17.775888 0.128407 0.000000 0.001500
GW 169 21 18.053474 -0.128301 0.000000 18.053474 0.128301 0.000000 0.001500
GW 170 21 18.331060 -0.128197 0.000000 18.331060 0.128197 0.000000 0.001500
GW 171 21 18.608645 -0.128094 0.000000 18.608645 0.128094 0.000000 0.001500
GW 172 21 18.886231 -0.127993 0.000000 18.886231 0.127993 0.000000 0.001500
GW 173 21 19.163816 -0.127893 0.000000 19.163816 0.127893 0.000000 0.001500
GW 174 21 19.441402 -0.127794 0.000000 19.441402 0.127794 0.000000 0.001500
GW 175 21 19.718988 -0.127697 0.000000 19.718988 0.127697 0.000000 0.001500
GW 176 21 19.996573 -0.127602 0.000000 19.996573 0.127602 0.000000 0.001500
GW 177 21 20.274159 -0.127507 0.000000 20.274159 0.127507 0.000000 0.001500
GW 178 21 20.551745 -0.127414 0.000000 20.551745 0.127414 0.000000 0.001500
GW 179 21 20.829330 -0.127322 0.000000 20.829330 0.127322 0.000000 0.001500
GW 180 21 21.106916 -0.127231 0.000000 21.106916 0.127231 0.000000 0.001500
GW 181 21 21.384501 -0.127141 0.000000 21.384501 0.127141 0.000000 0.001500
GW 182 21 21.662087 -0.127052 0.000000 21.662087 0.127052 0.000000 0.001500
GW 183 21 21.939673 -0.126964 0.000000 21.939673 0.126964 0.000000 0.001500
GW 184 21 22.217258 -0.126878 0.000000 22.217258 0.126878 0.000000 0.001500
GW 185 21 22.494844 -0.126792 0.000000 22.494844 0.126792 0.000000 0.001500
GW 186 21 22.772429 -0.126708 0.000000 22.772429 0.126708 0.000000 0.001500
GW 187 21 23.050015 -0.126624 0.000000 23.050015 0.126624 0.000000 0.001500
GW 188 21 23.327601 -0.126542 0.000000 23.327601 0.126542 0.000000 0.001500
GW 189 21 23.605186 -0.126460 0.000000 23.605186 0.126460 0.000000 0.001500
GW 190 21 23.882772 -0.126380 0.000000 23.882772 0.126380 0.000000 0.001500
GW 191 21 24.160357 -0.126300 0.000000 24.160357 0.126300 0.000000 0.001500
GW 192 21 24.437943 -0.126221 0.000000 24.437943 0.126221 0.000000 0.001500
GW 193 21 24.715529 -0.126143 0.000000 24.715529 0.126143 0.000000 0.001500
GW 194 21 24.993114 -0.126066 0.000000 24.993114 0.126066 0.000000 0.001500
GW 195 21 25.270700 -0.125989 0.000000 25.270700 0.125989 0.000000 0.001500
GW 196 21 25.548286 -0.125914 0.000000 25.548286 0.125914 0.000000 0.001500
GW 197 21 25.825871 -0.125839 0.000000 25.825871 0.125839 0.000000 0.001500
GW 198 21 26.103457 -0.125765 0.000000 26.103457 0.125765 0.000000 0.001500
GW 199 21 26.381042 -0.125692 0.000000 26.381042 0.125692 0.000000 0.001500
GE 0
GN -1
EK
PT -1
LD 5,0,0,0,2.88E+07
EX 0 101 11 00 1. 0.
FR 0,1,0,0,432
'RP 0,901,1,1000,90.,0.,-0.1,0.
'RP 0,1,901,1000,90.,0.,0.,0.1
EN
