CM WB0GGM's 24-Element EME Yagi, by K6STI
CE Converted with 4nec2 on 22-apr-02
GW	1	11	-102.1455	-6.7126	0.0000	-102.1455	6.7126	0.0000	0.1875
GW	2	11	-98.0510	-6.5748	0.0000	-98.0510	6.5748	0.0000	0.1875
GW	3	9	-96.3974	-6.1417	0.0000	-96.3974	6.1417	0.0000	0.1875
GW	4	9	-93.3266	-6.0630	0.0000	-93.3266	6.0630	0.0000	0.1875
GW	5	9	-87.4998	-5.9055	0.0000	-87.4998	5.9055	0.0000	0.1875
GW	6	9	-80.6101	-5.8268	0.0000	-80.6101	5.8268	0.0000	0.1875
GW	7	9	-72.9723	-5.7677	0.0000	-72.9723	5.7677	0.0000	0.1875
GW	8	9	-64.7440	-5.7086	0.0000	-64.7440	5.7086	0.0000	0.1875
GW	9	9	-56.1023	-5.6496	0.0000	-56.1023	5.6496	0.0000	0.1875
GW	10	9	-46.8700	-5.6299	0.0000	-46.8700	5.6299	0.0000	0.1875
GW	11	9	-37.6968	-5.6299	0.0000	-37.6968	5.6299	0.0000	0.1875
GW	12	9	-28.0314	-5.5512	0.0000	-28.0314	5.5512	0.0000	0.1875
GW	13	9	-17.5787	-5.5315	0.0000	-17.5787	5.5315	0.0000	0.1875
GW	14	9	-7.0669	-5.5512	0.0000	-7.0669	5.5512	0.0000	0.1875
GW	15	9	3.5630	-5.5512	0.0000	3.5630	5.5512	0.0000	0.1875
GW	16	9	14.3110	-5.5118	0.0000	14.3110	5.5118	0.0000	0.1875
GW	17	9	25.2952	-5.4527	0.0000	25.2952	5.4527	0.0000	0.1875
GW	18	9	36.2401	-5.4331	0.0000	36.2401	5.4331	0.0000	0.1875
GW	19	9	47.1849	-5.3740	0.0000	47.1849	5.3740	0.0000	0.1875
GW	20	9	58.1692	-5.3937	0.0000	58.1692	5.3937	0.0000	0.1875
GW	21	9	69.1534	-5.4527	0.0000	69.1534	5.4527	0.0000	0.1875
GW	22	9	80.1770	-5.3937	0.0000	80.1770	5.3937	0.0000	0.1875
GW	23	9	91.1612	-5.2362	0.0000	91.1612	5.2362	0.0000	0.1875
GW	24	9	102.1455	-5.2165	0.0000	102.1455	5.2165	0.0000	0.1875
GS	0	0	in
GE	0
EX	0	2	6	00	1.0	0.0
'
GN	-1
FR	0	1	0	0	 432
EN
