CM  Grid Yagi for 144-148 MHz
CM  This file is written in 4nec2
CM  Antenna material is 2" X 4" galvanized welded wire fence
CM  All dimensions are in inches
CM
CM By Ross Anderson  W1HBQ  
CE
SY ref = 12
SY dir1 = 12
SY dir2 = 26
SY dir3 = 51
SY dir4 = 74
GW	1	1	0	-12	12	0	-10	12	0.039
GW	2	1	0	-10	12	0	-8	12	0.039
GW	3	1	0	-8	12	0	-6	12	0.039
GW	4	1	0	-6	12	0	-4	12	0.039
GW	5	1	0	-4	12	0	-2	12	0.039
GW	6	1	0	-2	12	0	0	12	0.039
GW	7	1	0	0	12	0	2	12	0.039
GW	8	1	0	2	12	0	4	12	0.039
GW	9	1	0	4	12	0	6	12	0.039
GW	10	1	0	6	12	0	8	12	0.039
GW	11	1	0	8	12	0	10	12	0.039
GW	12	1	0	10	12	0	12	12	0.039
GW	13	1	0	-12	8	0	-10	8	0.039
GW	14	1	0	-10	8	0	-8	8	0.039
GW	15	1	0	-8	8	0	-6	8	0.039
GW	16	1	0	-6	8	0	-4	8	0.039
GW	17	1	0	-4	8	0	-2	8	0.039
GW	18	1	0	-2	8	0	0	8	0.039
GW	19	1	0	0	8	0	2	8	0.039
GW	20	1	0	2	8	0	4	8	0.039
GW	21	1	0	4	8	0	6	8	0.039
GW	22	1	0	6	8	0	8	8	0.039
GW	23	1	0	8	8	0	10	8	0.039
GW	24	1	0	10	8	0	12	8	0.039
GW	25	1	0	-12	4	0	-10	4	0.039
GW	26	1	0	-10	4	0	-8	4	0.039
GW	27	1	0	-8	4	0	-6	4	0.039
GW	28	1	0	-6	4	0	-4	4	0.039
GW	29	1	0	-4	4	0	-2	4	0.039
GW	32	1	0	2	4	0	4	4	0.039
GW	33	1	0	4	4	0	6	4	0.039
GW	34	1	0	6	4	0	8	4	0.039
GW	35	1	0	8	4	0	10	4	0.039
GW	36	1	0	10	4	0	12	4	0.039
GW	37	1	0	-12	0	0	-10	0	0.039
GW	38	1	0	-10	0	0	-8	0	0.039
GW	39	1	0	-8	0	0	-6	0	0.039
GW	40	1	0	-6	0	0	-4	0	0.039
GW	41	1	0	-4	0	0	-2	0	0.039
GW	44	1	0	2	0	0	4	0	0.039
GW	45	1	0	4	0	0	6	0	0.039
GW	46	1	0	6	0	0	8	0	0.039
GW	47	1	0	8	0	0	10	0	0.039
GW	48	1	0	10	0	0	12	0	0.039
GW	49	1	0	-12	-4	0	-10	-4	0.039
GW	50	1	0	-10	-4	0	-8	-4	0.039
GW	51	1	0	-8	-4	0	-6	-4	0.039
GW	52	1	0	-6	-4	0	-4	-4	0.039
GW	53	1	0	-4	-4	0	-2	-4	0.039
GW	56	1	0	2	-4	0	4	-4	0.039
GW	57	1	0	4	-4	0	6	-4	0.039
GW	58	1	0	6	-4	0	8	-4	0.039
GW	59	1	0	8	-4	0	10	-4	0.039
GW	60	1	0	10	-4	0	12	-4	0.039
GW	61	1	0	-12	-8	0	-10	-8	0.039
GW	62	1	0	-10	-8	0	-8	-8	0.039
GW	63	1	0	-8	-8	0	-6	-8	0.039
GW	64	1	0	-6	-8	0	-4	-8	0.039
GW	65	1	0	-4	-8	0	-2	-8	0.039
GW	68	1	0	2	-8	0	4	-8	0.039
GW	69	1	0	4	-8	0	6	-8	0.039
GW	70	1	0	6	-8	0	8	-8	0.039
GW	71	1	0	8	-8	0	10	-8	0.039
GW	72	1	0	10	-8	0	12	-8	0.039
GW	73	1	0	-12	-12	0	-10	-12	0.039
GW	74	1	0	-10	-12	0	-8	-12	0.039
GW	75	1	0	-8	-12	0	-6	-12	0.039
GW	76	1	0	-6	-12	0	-4	-12	0.039
GW	77	1	0	-4	-12	0	-2	-12	0.039
GW	80	1	0	2	-12	0	4	-12	0.039
GW	81	1	0	4	-12	0	6	-12	0.039
GW	82	1	0	6	-12	0	8	-12	0.039
GW	83	1	0	8	-12	0	10	-12	0.039
GW	84	1	0	10	-12	0	12	-12	0.039
GW	85	2	0	-12	12	0	-12	8	0.039
GW	86	2	0	-12	8	0	-12	4	0.039
GW	87	2	0	-12	4	0	-12	0	0.039
GW	88	2	0	-12	0	0	-12	-4	0.039
GW	89	2	0	-12	-4	0	-12	-8	0.039
GW	90	2	0	-12	-8	0	-12	-12	0.039
GW	91	2	0	-10	12	0	-10	8	0.039
GW	92	2	0	-10	8	0	-10	4	0.039
GW	93	2	0	-10	4	0	-10	0	0.039
GW	94	2	0	-10	0	0	-10	-4	0.039
GW	95	2	0	-10	-4	0	-10	-8	0.039
GW	96	2	0	-10	-8	0	-10	-12	0.039
GW	97	2	0	-8	12	0	-8	8	0.039
GW	98	2	0	-8	8	0	-8	4	0.039
GW	99	2	0	-8	4	0	-8	0	0.039
GW	100	2	0	-8	0	0	-8	-4	0.039
GW	101	2	0	-8	-4	0	-8	-8	0.039
GW	102	2	0	-8	-8	0	-8	-12	0.039
GW	103	2	0	-6	12	0	-6	8	0.039
GW	104	2	0	-6	8	0	-6	4	0.039
GW	105	2	0	-6	4	0	-6	0	0.039
GW	106	2	0	-6	0	0	-6	-4	0.039
GW	107	2	0	-6	-4	0	-6	-8	0.039
GW	108	2	0	-6	-8	0	-6	-12	0.039
GW	109	2	0	-4	12	0	-4	8	0.039
GW	110	2	0	-4	8	0	-4	4	0.039
GW	111	2	0	-4	4	0	-4	0	0.039
GW	112	2	0	-4	0	0	-4	-4	0.039
GW	113	2	0	-4	-4	0	-4	-8	0.039
GW	114	2	0	-4	-8	0	-4	-12	0.039
GW	115	2	0	-2	12	0	-2	8	0.039
GW	116	2	0	-2	6	0	-2	4	0.039
GW	117	2	0	-2	4	0	-2	0	0.039
GW	118	2	0	-2	0	0	-2	-4	0.039
GW	119	2	0	-2	-4	0	-2	-8	0.039
GW	120	2	0	-2	-8	0	-2	-12	0.039
GW	121	2	0	0	12	0	0	8	0.039
GW	127	2	0	2	12	0	2	8	0.039
GW	128	2	0	2	6	0	2	4	0.039
GW	129	2	0	2	4	0	2	0	0.039
GW	130	2	0	2	0	0	2	-4	0.039
GW	131	2	0	2	-4	0	2	-8	0.039
GW	132	2	0	2	-8	0	2	-12	0.039
GW	133	2	0	4	12	0	4	8	0.039
GW	134	2	0	4	8	0	4	4	0.039
GW	135	2	0	4	4	0	4	0	0.039
GW	136	2	0	4	0	0	4	-4	0.039
GW	137	2	0	4	-4	0	4	-8	0.039
GW	138	2	0	4	-8	0	4	-12	0.039
GW	139	2	0	6	12	0	6	8	0.039
GW	140	2	0	6	8	0	6	4	0.039
GW	141	2	0	6	4	0	6	0	0.039
GW	142	2	0	6	0	0	6	-4	0.039
GW	143	2	0	6	-4	0	6	-8	0.039
GW	144	2	0	6	-8	0	6	-12	0.039
GW	145	2	0	8	12	0	8	8	0.039
GW	146	2	0	8	8	0	8	4	0.039
GW	147	2	0	8	4	0	8	0	0.039
GW	148	2	0	8	0	0	8	-4	0.039
GW	149	2	0	8	-4	0	8	-8	0.039
GW	150	2	0	8	-8	0	8	-12	0.039
GW	151	2	0	10	12	0	10	8	0.039
GW	152	2	0	10	8	0	10	4	0.039
GW	153	2	0	10	4	0	10	0	0.039
GW	154	2	0	10	0	0	10	-4	0.039
GW	155	2	0	10	-4	0	10	-8	0.039
GW	156	2	0	10	-8	0	10	-12	0.039
GW	157	2	0	12	12	0	12	8	0.039
GW	158	2	0	12	8	0	12	4	0.039
GW	159	2	0	12	4	0	12	0	0.039
GW	160	2	0	12	0	0	12	-4	0.039
GW	161	2	0	12	-4	0	12	-8	0.039
GW	162	2	0	12	-8	0	12	-12	0.039
GW	163	1	0	-2	8	0	-2	6	0.039
GW	164	1	0	2	8	0	2	6	0.039
GW	165	3	0	-2	6	0	2	6	0.039
GW	166	3	0	-2	-12	0	2	-12	0.039
GW	167	1	dir1	-12	12	dir1	-10	12	0.039
GW	168	1	dir1	-10	12	dir1	-8	12	0.039
GW	169	1	dir1	-8	12	dir1	-6	12	0.039
GW	170	1	dir1	-6	12	dir1	-4	12	0.039
GW	171	1	dir1	-4	12	dir1	-2	12	0.039
GW	172	1	dir1	-2	12	dir1	0	12	0.039
GW	173	1	dir1	0	12	dir1	2	12	0.039
GW	174	1	dir1	2	12	dir1	4	12	0.039
GW	175	1	dir1	4	12	dir1	6	12	0.039
GW	176	1	dir1	6	12	dir1	8	12	0.039
GW	177	1	dir1	8	12	dir1	10	12	0.039
GW	178	1	dir1	10	12	dir1	12	12	0.039
GW	179	1	dir1	-12	8	dir1	-10	8	0.039
GW	180	1	dir1	-10	8	dir1	-8	8	0.039
GW	181	1	dir1	-8	8	dir1	-6	8	0.039
GW	182	1	dir1	-6	8	dir1	-4	8	0.039
GW	183	1	dir1	-4	8	dir1	-2	8	0.039
GW	184	1	dir1	-2	8	dir1	0	8	0.039
GW	185	1	dir1	0	8	dir1	2	8	0.039
GW	186	1	dir1	2	8	dir1	4	8	0.039
GW	187	1	dir1	4	8	dir1	6	8	0.039
GW	188	1	dir1	6	8	dir1	8	8	0.039
GW	189	1	dir1	8	8	dir1	10	8	0.039
GW	190	1	dir1	10	8	dir1	12	8	0.039
GW	191	1	dir1	-12	4	dir1	-10	4	0.039
GW	192	1	dir1	-10	4	dir1	-8	4	0.039
GW	193	1	dir1	-8	4	dir1	-6	4	0.039
GW	194	1	dir1	-6	4	dir1	-4	4	0.039
GW	195	1	dir1	-4	4	dir1	-2	4	0.039
GW	196	1	dir1	-2	4	dir1	0	4	0.039
GW	197	1	dir1	0	4	dir1	2	4	0.039
GW	198	1	dir1	2	4	dir1	4	4	0.039
GW	199	1	dir1	4	4	dir1	6	4	0.039
GW	200	1	dir1	6	4	dir1	8	4	0.039
GW	201	1	dir1	8	4	dir1	10	4	0.039
GW	202	1	dir1	10	4	dir1	12	4	0.039
GW	203	1	dir1	-12	0	dir1	-10	0	0.039
GW	204	1	dir1	-10	0	dir1	-8	0	0.039
GW	205	1	dir1	-8	0	dir1	-6	0	0.039
GW	206	1	dir1	-6	0	dir1	-4	0	0.039
GW	207	1	dir1	-4	0	dir1	-2	0	0.039
GW	210	1	dir1	2	0	dir1	4	0	0.039
GW	211	1	dir1	4	0	dir1	6	0	0.039
GW	212	1	dir1	6	0	dir1	8	0	0.039
GW	213	1	dir1	8	0	dir1	10	0	0.039
GW	214	1	dir1	10	0	dir1	12	0	0.039
GW	215	1	dir1	-12	-4	dir1	-10	-4	0.039
GW	216	1	dir1	-10	-4	dir1	-8	-4	0.039
GW	217	1	dir1	-8	-4	dir1	-6	-4	0.039
GW	218	1	dir1	-6	-4	dir1	-4	-4	0.039
GW	219	1	dir1	-4	-4	dir1	-2	-4	0.039
GW	220	1	dir1	-2	-4	dir1	0	-4	0.039
GW	221	1	dir1	0	-4	dir1	2	-4	0.039
GW	222	1	dir1	2	-4	dir1	4	-4	0.039
GW	223	1	dir1	4	-4	dir1	6	-4	0.039
GW	224	1	dir1	6	-4	dir1	8	-4	0.039
GW	225	1	dir1	8	-4	dir1	10	-4	0.039
GW	226	1	dir1	10	-4	dir1	12	-4	0.039
GW	227	1	dir1	-12	-8	dir1	-10	-8	0.039
GW	228	1	dir1	-10	-8	dir1	-8	-8	0.039
GW	229	1	dir1	-8	-8	dir1	-6	-8	0.039
GW	230	1	dir1	-6	-8	dir1	-4	-8	0.039
GW	231	1	dir1	-4	-8	dir1	-2	-8	0.039
GW	232	1	dir1	-2	-8	dir1	0	-8	0.039
GW	233	1	dir1	0	-8	dir1	2	-8	0.039
GW	234	1	dir1	2	-8	dir1	4	-8	0.039
GW	235	1	dir1	4	-8	dir1	6	-8	0.039
GW	236	1	dir1	6	-8	dir1	8	-8	0.039
GW	237	1	dir1	8	-8	dir1	10	-8	0.039
GW	238	1	dir1	10	-8	dir1	12	-8	0.039
GW	239	1	dir1	-12	-12	dir1	-10	-12	0.039
GW	240	1	dir1	-10	-12	dir1	-8	-12	0.039
GW	241	1	dir1	-8	-12	dir1	-6	-12	0.039
GW	242	1	dir1	-6	-12	dir1	-4	-12	0.039
GW	243	1	dir1	-4	-12	dir1	-2	-12	0.039
GW	244	1	dir1	-2	-12	dir1	0	-12	0.039
GW	245	1	dir1	0	-12	dir1	2	-12	0.039
GW	246	1	dir1	2	-12	dir1	4	-12	0.039
GW	247	1	dir1	4	-12	dir1	6	-12	0.039
GW	248	1	dir1	6	-12	dir1	8	-12	0.039
GW	249	1	dir1	8	-12	dir1	10	-12	0.039
GW	250	1	dir1	10	-12	dir1	12	-12	0.039
GW	251	2	dir1	-12	12	dir1	-12	8	0.039
GW	252	2	dir1	-12	8	dir1	-12	4	0.039
GW	253	2	dir1	-12	4	dir1	-12	0	0.039
GW	254	2	dir1	-12	0	dir1	-12	-4	0.039
GW	255	2	dir1	-12	-4	dir1	-12	-8	0.039
GW	256	2	dir1	-12	-8	dir1	-12	-12	0.039
GW	257	2	dir1	-10	12	dir1	-10	8	0.039
GW	258	2	dir1	-10	8	dir1	-10	4	0.039
GW	259	2	dir1	-10	4	dir1	-10	0	0.039
GW	260	2	dir1	-10	0	dir1	-10	-4	0.039
GW	261	2	dir1	-10	-4	dir1	-10	-8	0.039
GW	262	2	dir1	-10	-8	dir1	-10	-12	0.039
GW	263	2	dir1	-8	12	dir1	-8	8	0.039
GW	264	2	dir1	-8	8	dir1	-8	4	0.039
GW	265	2	dir1	-8	4	dir1	-8	0	0.039
GW	266	2	dir1	-8	0	dir1	-8	-4	0.039
GW	267	2	dir1	-8	-4	dir1	-8	-8	0.039
GW	268	2	dir1	-8	-8	dir1	-8	-12	0.039
GW	269	2	dir1	-6	12	dir1	-6	8	0.039
GW	270	2	dir1	-6	8	dir1	-6	4	0.039
GW	271	2	dir1	-6	4	dir1	-6	0	0.039
GW	272	2	dir1	-6	0	dir1	-6	-4	0.039
GW	273	2	dir1	-6	-4	dir1	-6	-8	0.039
GW	274	2	dir1	-6	-8	dir1	-6	-12	0.039
GW	275	2	dir1	-4	12	dir1	-4	8	0.039
GW	276	2	dir1	-4	8	dir1	-4	4	0.039
GW	277	2	dir1	-4	4	dir1	-4	0	0.039
GW	278	2	dir1	-4	0	dir1	-4	-4	0.039
GW	279	2	dir1	-4	-4	dir1	-4	-8	0.039
GW	280	2	dir1	-4	-8	dir1	-4	-12	0.039
GW	281	2	dir1	-2	12	dir1	-2	8	0.039
GW	282	2	dir1	-2	8	dir1	-2	4	0.039
GW	283	2	dir1	-2	4	dir1	-2	0	0.039
GW	284	2	dir1	-2	0	dir1	-2	-4	0.039
GW	285	2	dir1	-2	-4	dir1	-2	-8	0.039
GW	286	2	dir1	-2	-8	dir1	-2	-12	0.039
GW	287	2	dir1	0	12	dir1	0	8	0.039
GW	288	2	dir1	0	8	dir1	0	4	0.039
GW	291	2	dir1	0	-4	dir1	0	-8	0.039
GW	292	2	dir1	0	-8	dir1	0	-12	0.039
GW	293	2	dir1	2	12	dir1	2	8	0.039
GW	294	2	dir1	2	8	dir1	2	4	0.039
GW	295	2	dir1	2	4	dir1	2	0	0.039
GW	296	2	dir1	2	0	dir1	2	-4	0.039
GW	297	2	dir1	2	-4	dir1	2	-8	0.039
GW	298	2	dir1	2	-8	dir1	2	-12	0.039
GW	299	2	dir1	4	12	dir1	4	8	0.039
GW	300	2	dir1	4	8	dir1	4	4	0.039
GW	301	2	dir1	4	4	dir1	4	0	0.039
GW	302	2	dir1	4	0	dir1	4	-4	0.039
GW	303	2	dir1	4	-4	dir1	4	-8	0.039
GW	304	2	dir1	4	-8	dir1	4	-12	0.039
GW	305	2	dir1	6	12	dir1	6	8	0.039
GW	306	2	dir1	6	8	dir1	6	4	0.039
GW	307	2	dir1	6	4	dir1	6	0	0.039
GW	308	2	dir1	6	0	dir1	6	-4	0.039
GW	309	2	dir1	6	-4	dir1	6	-8	0.039
GW	310	2	dir1	6	-8	dir1	6	-12	0.039
GW	311	2	dir1	8	12	dir1	8	8	0.039
GW	312	2	dir1	8	8	dir1	8	4	0.039
GW	313	2	dir1	8	4	dir1	8	0	0.039
GW	314	2	dir1	8	0	dir1	8	-4	0.039
GW	315	2	dir1	8	-4	dir1	8	-8	0.039
GW	316	2	dir1	8	-8	dir1	8	-12	0.039
GW	317	2	dir1	10	12	dir1	10	8	0.039
GW	318	2	dir1	10	8	dir1	10	4	0.039
GW	319	2	dir1	10	4	dir1	10	0	0.039
GW	320	2	dir1	10	0	dir1	10	-4	0.039
GW	321	2	dir1	10	-4	dir1	10	-8	0.039
GW	322	2	dir1	10	-8	dir1	10	-12	0.039
GW	323	2	dir1	12	12	dir1	12	8	0.039
GW	324	2	dir1	12	8	dir1	12	4	0.039
GW	325	2	dir1	12	4	dir1	12	0	0.039
GW	326	2	dir1	12	0	dir1	12	-4	0.039
GW	327	2	dir1	12	-4	dir1	12	-8	0.039
GW	328	2	dir1	12	-8	dir1	12	-12	0.039
GW	329	1	dir2	-12	12	dir2	-10	12	0.039
GW	330	1	dir2	-10	12	dir2	-8	12	0.039
GW	331	1	dir2	-8	12	dir2	-6	12	0.039
GW	332	1	dir2	-6	12	dir2	-4	12	0.039
GW	333	1	dir2	-4	12	dir2	-2	12	0.039
GW	334	1	dir2	-2	12	dir2	0	12	0.039
GW	335	1	dir2	0	12	dir2	2	12	0.039
GW	336	1	dir2	2	12	dir2	4	12	0.039
GW	337	1	dir2	4	12	dir2	6	12	0.039
GW	338	1	dir2	6	12	dir2	8	12	0.039
GW	339	1	dir2	8	12	dir2	10	12	0.039
GW	340	1	dir2	10	12	dir2	12	12	0.039
GW	341	1	dir2	-12	8	dir2	-10	8	0.039
GW	342	1	dir2	-10	8	dir2	-8	8	0.039
GW	343	1	dir2	-8	8	dir2	-6	8	0.039
GW	344	1	dir2	-6	8	dir2	-4	8	0.039
GW	345	1	dir2	-4	8	dir2	-2	8	0.039
GW	346	1	dir2	-2	8	dir2	0	8	0.039
GW	347	1	dir2	0	8	dir2	2	8	0.039
GW	348	1	dir2	2	8	dir2	4	8	0.039
GW	349	1	dir2	4	8	dir2	6	8	0.039
GW	350	1	dir2	6	8	dir2	8	8	0.039
GW	351	1	dir2	8	8	dir2	10	8	0.039
GW	352	1	dir2	10	8	dir2	12	8	0.039
GW	353	1	dir2	-12	4	dir2	-10	4	0.039
GW	354	1	dir2	-10	4	dir2	-8	4	0.039
GW	355	1	dir2	-8	4	dir2	-6	4	0.039
GW	356	1	dir2	-6	4	dir2	-4	4	0.039
GW	357	1	dir2	-4	4	dir2	-2	4	0.039
GW	358	1	dir2	-2	4	dir2	0	4	0.039
GW	359	1	dir2	0	4	dir2	2	4	0.039
GW	360	1	dir2	2	4	dir2	4	4	0.039
GW	361	1	dir2	4	4	dir2	6	4	0.039
GW	362	1	dir2	6	4	dir2	8	4	0.039
GW	363	1	dir2	8	4	dir2	10	4	0.039
GW	364	1	dir2	10	4	dir2	12	4	0.039
GW	365	1	dir2	-12	0	dir2	-10	0	0.039
GW	366	1	dir2	-10	0	dir2	-8	0	0.039
GW	367	1	dir2	-8	0	dir2	-6	0	0.039
GW	368	1	dir2	-6	0	dir2	-4	0	0.039
GW	369	1	dir2	-4	0	dir2	-2	0	0.039
GW	370	1	dir2	2	0	dir2	4	0	0.039
GW	371	1	dir2	4	0	dir2	6	0	0.039
GW	372	1	dir2	6	0	dir2	8	0	0.039
GW	373	1	dir2	8	0	dir2	10	0	0.039
GW	374	1	dir2	10	0	dir2	12	0	0.039
GW	375	1	dir2	-12	-4	dir2	-10	-4	0.039
GW	376	1	dir2	-10	-4	dir2	-8	-4	0.039
GW	377	1	dir2	-8	-4	dir2	-6	-4	0.039
GW	378	1	dir2	-6	-4	dir2	-4	-4	0.039
GW	379	1	dir2	-4	-4	dir2	-2	-4	0.039
GW	380	1	dir2	-2	-4	dir2	0	-4	0.039
GW	381	1	dir2	0	-4	dir2	2	-4	0.039
GW	382	1	dir2	2	-4	dir2	4	-4	0.039
GW	383	1	dir2	4	-4	dir2	6	-4	0.039
GW	384	1	dir2	6	-4	dir2	8	-4	0.039
GW	385	1	dir2	8	-4	dir2	10	-4	0.039
GW	386	1	dir2	10	-4	dir2	12	-4	0.039
GW	387	1	dir2	-12	-8	dir2	-10	-8	0.039
GW	388	1	dir2	-10	-8	dir2	-8	-8	0.039
GW	389	1	dir2	-8	-8	dir2	-6	-8	0.039
GW	390	1	dir2	-6	-8	dir2	-4	-8	0.039
GW	391	1	dir2	-4	-8	dir2	-2	-8	0.039
GW	392	1	dir2	-2	-8	dir2	0	-8	0.039
GW	393	1	dir2	0	-8	dir2	2	-8	0.039
GW	394	1	dir2	2	-8	dir2	4	-8	0.039
GW	395	1	dir2	4	-8	dir2	6	-8	0.039
GW	396	1	dir2	6	-8	dir2	8	-8	0.039
GW	397	1	dir2	8	-8	dir2	10	-8	0.039
GW	398	1	dir2	10	-8	dir2	12	-8	0.039
GW	399	1	dir2	-12	-12	dir2	-10	-12	0.039
GW	400	1	dir2	-10	-12	dir2	-8	-12	0.039
GW	401	1	dir2	-8	-12	dir2	-6	-12	0.039
GW	402	1	dir2	-6	-12	dir2	-4	-12	0.039
GW	403	1	dir2	-4	-12	dir2	-2	-12	0.039
GW	404	1	dir2	-2	-12	dir2	0	-12	0.039
GW	405	1	dir2	0	-12	dir2	2	-12	0.039
GW	406	1	dir2	2	-12	dir2	4	-12	0.039
GW	407	1	dir2	4	-12	dir2	6	-12	0.039
GW	408	1	dir2	6	-12	dir2	8	-12	0.039
GW	409	1	dir2	8	-12	dir2	10	-12	0.039
GW	410	1	dir2	10	-12	dir2	12	-12	0.039
GW	411	2	dir2	-12	12	dir2	-12	8	0.039
GW	412	2	dir2	-12	8	dir2	-12	4	0.039
GW	413	2	dir2	-12	4	dir2	-12	0	0.039
GW	414	2	dir2	-12	0	dir2	-12	-4	0.039
GW	415	2	dir2	-12	-4	dir2	-12	-8	0.039
GW	416	2	dir2	-12	-8	dir2	-12	-12	0.039
GW	417	2	dir2	-10	12	dir2	-10	8	0.039
GW	418	2	dir2	-10	8	dir2	-10	4	0.039
GW	419	2	dir2	-10	4	dir2	-10	0	0.039
GW	420	2	dir2	-10	0	dir2	-10	-4	0.039
GW	421	2	dir2	-10	-4	dir2	-10	-8	0.039
GW	422	2	dir2	-10	-8	dir2	-10	-12	0.039
GW	423	2	dir2	-8	12	dir2	-8	8	0.039
GW	424	2	dir2	-8	8	dir2	-8	4	0.039
GW	425	2	dir2	-8	4	dir2	-8	0	0.039
GW	426	2	dir2	-8	0	dir2	-8	-4	0.039
GW	427	2	dir2	-8	-4	dir2	-8	-8	0.039
GW	428	2	dir2	-8	-8	dir2	-8	-12	0.039
GW	429	2	dir2	-6	12	dir2	-6	8	0.039
GW	430	2	dir2	-6	8	dir2	-6	4	0.039
GW	431	2	dir2	-6	4	dir2	-6	0	0.039
GW	432	2	dir2	-6	0	dir2	-6	-4	0.039
GW	433	2	dir2	-6	-4	dir2	-6	-8	0.039
GW	434	2	dir2	-6	-8	dir2	-6	-12	0.039
GW	435	2	dir2	-4	12	dir2	-4	8	0.039
GW	436	2	dir2	-4	8	dir2	-4	4	0.039
GW	437	2	dir2	-4	4	dir2	-4	0	0.039
GW	438	2	dir2	-4	0	dir2	-4	-4	0.039
GW	439	2	dir2	-4	-4	dir2	-4	-8	0.039
GW	440	2	dir2	-4	-8	dir2	-4	-12	0.039
GW	441	2	dir2	-2	12	dir2	-2	8	0.039
GW	442	2	dir2	-2	8	dir2	-2	4	0.039
GW	443	2	dir2	-2	4	dir2	-2	0	0.039
GW	444	2	dir2	-2	0	dir2	-2	-4	0.039
GW	445	2	dir2	-2	-4	dir2	-2	-8	0.039
GW	446	2	dir2	-2	-8	dir2	-2	-12	0.039
GW	447	2	dir2	0	12	dir2	0	8	0.039
GW	448	2	dir2	0	8	dir2	0	4	0.039
GW	449	2	dir2	0	-4	dir2	0	-8	0.039
GW	450	2	dir2	0	-8	dir2	0	-12	0.039
GW	451	2	dir2	2	12	dir2	2	8	0.039
GW	452	2	dir2	2	8	dir2	2	4	0.039
GW	453	2	dir2	2	4	dir2	2	0	0.039
GW	454	2	dir2	2	0	dir2	2	-4	0.039
GW	455	2	dir2	2	-4	dir2	2	-8	0.039
GW	456	2	dir2	2	-8	dir2	2	-12	0.039
GW	457	2	dir2	4	12	dir2	4	8	0.039
GW	458	2	dir2	4	8	dir2	4	4	0.039
GW	459	2	dir2	4	4	dir2	4	0	0.039
GW	460	2	dir2	4	0	dir2	4	-4	0.039
GW	461	2	dir2	4	-4	dir2	4	-8	0.039
GW	462	2	dir2	4	-8	dir2	4	-12	0.039
GW	463	2	dir2	6	12	dir2	6	8	0.039
GW	464	2	dir2	6	8	dir2	6	4	0.039
GW	465	2	dir2	6	4	dir2	6	0	0.039
GW	466	2	dir2	6	0	dir2	6	-4	0.039
GW	467	2	dir2	6	-4	dir2	6	-8	0.039
GW	468	2	dir2	6	-8	dir2	6	-12	0.039
GW	469	2	dir2	8	12	dir2	8	8	0.039
GW	470	2	dir2	8	8	dir2	8	4	0.039
GW	471	2	dir2	8	4	dir2	8	0	0.039
GW	472	2	dir2	8	0	dir2	8	-4	0.039
GW	473	2	dir2	8	-4	dir2	8	-8	0.039
GW	474	2	dir2	8	-8	dir2	8	-12	0.039
GW	475	2	dir2	10	12	dir2	10	8	0.039
GW	476	2	dir2	10	8	dir2	10	4	0.039
GW	477	2	dir2	10	4	dir2	10	0	0.039
GW	478	2	dir2	10	0	dir2	10	-4	0.039
GW	479	2	dir2	10	-4	dir2	10	-8	0.039
GW	480	2	dir2	10	-8	dir2	10	-12	0.039
GW	481	2	dir2	12	12	dir2	12	8	0.039
GW	482	2	dir2	12	8	dir2	12	4	0.039
GW	483	2	dir2	12	4	dir2	12	0	0.039
GW	484	2	dir2	12	0	dir2	12	-4	0.039
GW	485	2	dir2	12	-4	dir2	12	-8	0.039
GW	486	2	dir2	12	-8	dir2	12	-12	0.039
GW	487	1	dir3	-12	12	dir3	-10	12	0.039
GW	488	1	dir3	-10	12	dir3	-8	12	0.039
GW	489	1	dir3	-8	12	dir3	-6	12	0.039
GW	490	1	dir3	-6	12	dir3	-4	12	0.039
GW	491	1	dir3	-4	12	dir3	-2	12	0.039
GW	492	1	dir3	-2	12	dir3	0	12	0.039
GW	493	1	dir3	0	12	dir3	2	12	0.039
GW	494	1	dir3	2	12	dir3	4	12	0.039
GW	495	1	dir3	4	12	dir3	6	12	0.039
GW	496	1	dir3	6	12	dir3	8	12	0.039
GW	497	1	dir3	8	12	dir3	10	12	0.039
GW	498	1	dir3	10	12	dir3	12	12	0.039
GW	499	1	dir3	-12	8	dir3	-10	8	0.039
GW	500	1	dir3	-10	8	dir3	-8	8	0.039
GW	501	1	dir3	-8	8	dir3	-6	8	0.039
GW	502	1	dir3	-6	8	dir3	-4	8	0.039
GW	503	1	dir3	-4	8	dir3	-2	8	0.039
GW	504	1	dir3	-2	8	dir3	0	8	0.039
GW	505	1	dir3	0	8	dir3	2	8	0.039
GW	506	1	dir3	2	8	dir3	4	8	0.039
GW	507	1	dir3	4	8	dir3	6	8	0.039
GW	508	1	dir3	6	8	dir3	8	8	0.039
GW	509	1	dir3	8	8	dir3	10	8	0.039
GW	510	1	dir3	10	8	dir3	12	8	0.039
GW	511	1	dir3	-12	4	dir3	-10	4	0.039
GW	512	1	dir3	-10	4	dir3	-8	4	0.039
GW	513	1	dir3	-8	4	dir3	-6	4	0.039
GW	514	1	dir3	-6	4	dir3	-4	4	0.039
GW	515	1	dir3	-4	4	dir3	-2	4	0.039
GW	516	1	dir3	-2	4	dir3	0	4	0.039
GW	517	1	dir3	0	4	dir3	2	4	0.039
GW	518	1	dir3	2	4	dir3	4	4	0.039
GW	519	1	dir3	4	4	dir3	6	4	0.039
GW	520	1	dir3	6	4	dir3	8	4	0.039
GW	521	1	dir3	8	4	dir3	10	4	0.039
GW	522	1	dir3	10	4	dir3	12	4	0.039
GW	523	1	dir3	-12	0	dir3	-10	0	0.039
GW	524	1	dir3	-10	0	dir3	-8	0	0.039
GW	525	1	dir3	-8	0	dir3	-6	0	0.039
GW	526	1	dir3	-6	0	dir3	-4	0	0.039
GW	527	1	dir3	-4	0	dir3	-2	0	0.039
GW	528	1	dir3	2	0	dir3	4	0	0.039
GW	529	1	dir3	4	0	dir3	6	0	0.039
GW	530	1	dir3	6	0	dir3	8	0	0.039
GW	531	1	dir3	8	0	dir3	10	0	0.039
GW	532	1	dir3	10	0	dir3	12	0	0.039
GW	533	1	dir3	-12	-4	dir3	-10	-4	0.039
GW	534	1	dir3	-10	-4	dir3	-8	-4	0.039
GW	535	1	dir3	-8	-4	dir3	-6	-4	0.039
GW	536	1	dir3	-6	-4	dir3	-4	-4	0.039
GW	537	1	dir3	-4	-4	dir3	-2	-4	0.039
GW	538	1	dir3	-2	-4	dir3	0	-4	0.039
GW	539	1	dir3	0	-4	dir3	2	-4	0.039
GW	540	1	dir3	2	-4	dir3	4	-4	0.039
GW	541	1	dir3	4	-4	dir3	6	-4	0.039
GW	542	1	dir3	6	-4	dir3	8	-4	0.039
GW	543	1	dir3	8	-4	dir3	10	-4	0.039
GW	544	1	dir3	10	-4	dir3	12	-4	0.039
GW	545	1	dir3	-12	-8	dir3	-10	-8	0.039
GW	546	1	dir3	-10	-8	dir3	-8	-8	0.039
GW	547	1	dir3	-8	-8	dir3	-6	-8	0.039
GW	548	1	dir3	-6	-8	dir3	-4	-8	0.039
GW	549	1	dir3	-4	-8	dir3	-2	-8	0.039
GW	550	1	dir3	-2	-8	dir3	0	-8	0.039
GW	551	1	dir3	0	-8	dir3	2	-8	0.039
GW	552	1	dir3	2	-8	dir3	4	-8	0.039
GW	553	1	dir3	4	-8	dir3	6	-8	0.039
GW	554	1	dir3	6	-8	dir3	8	-8	0.039
GW	555	1	dir3	8	-8	dir3	10	-8	0.039
GW	556	1	dir3	10	-8	dir3	12	-8	0.039
GW	557	1	dir3	-12	-12	dir3	-10	-12	0.039
GW	558	1	dir3	-10	-12	dir3	-8	-12	0.039
GW	559	1	dir3	-8	-12	dir3	-6	-12	0.039
GW	560	1	dir3	-6	-12	dir3	-4	-12	0.039
GW	561	1	dir3	-4	-12	dir3	-2	-12	0.039
GW	562	1	dir3	-2	-12	dir3	0	-12	0.039
GW	563	1	dir3	0	-12	dir3	2	-12	0.039
GW	564	1	dir3	2	-12	dir3	4	-12	0.039
GW	565	1	dir3	4	-12	dir3	6	-12	0.039
GW	566	1	dir3	6	-12	dir3	8	-12	0.039
GW	567	1	dir3	8	-12	dir3	10	-12	0.039
GW	568	1	dir3	10	-12	dir3	12	-12	0.039
GW	569	2	dir3	-12	12	dir3	-12	8	0.039
GW	570	2	dir3	-12	8	dir3	-12	4	0.039
GW	571	2	dir3	-12	4	dir3	-12	0	0.039
GW	572	2	dir3	-12	0	dir3	-12	-4	0.039
GW	573	2	dir3	-12	-4	dir3	-12	-8	0.039
GW	574	2	dir3	-12	-8	dir3	-12	-12	0.039
GW	575	2	dir3	-10	12	dir3	-10	8	0.039
GW	576	2	dir3	-10	8	dir3	-10	4	0.039
GW	577	2	dir3	-10	4	dir3	-10	0	0.039
GW	578	2	dir3	-10	0	dir3	-10	-4	0.039
GW	579	2	dir3	-10	-4	dir3	-10	-8	0.039
GW	580	2	dir3	-10	-8	dir3	-10	-12	0.039
GW	581	2	dir3	-8	12	dir3	-8	8	0.039
GW	582	2	dir3	-8	8	dir3	-8	4	0.039
GW	583	2	dir3	-8	4	dir3	-8	0	0.039
GW	584	2	dir3	-8	0	dir3	-8	-4	0.039
GW	585	2	dir3	-8	-4	dir3	-8	-8	0.039
GW	586	2	dir3	-8	-8	dir3	-8	-12	0.039
GW	587	2	dir3	-6	12	dir3	-6	8	0.039
GW	588	2	dir3	-6	8	dir3	-6	4	0.039
GW	589	2	dir3	-6	4	dir3	-6	0	0.039
GW	590	2	dir3	-6	0	dir3	-6	-4	0.039
GW	591	2	dir3	-6	-4	dir3	-6	-8	0.039
GW	592	2	dir3	-6	-8	dir3	-6	-12	0.039
GW	593	2	dir3	-4	12	dir3	-4	8	0.039
GW	594	2	dir3	-4	8	dir3	-4	4	0.039
GW	595	2	dir3	-4	4	dir3	-4	0	0.039
GW	596	2	dir3	-4	0	dir3	-4	-4	0.039
GW	597	2	dir3	-4	-4	dir3	-4	-8	0.039
GW	598	2	dir3	-4	-8	dir3	-4	-12	0.039
GW	599	2	dir3	-2	12	dir3	-2	8	0.039
GW	600	2	dir3	-2	8	dir3	-2	4	0.039
GW	601	2	dir3	-2	4	dir3	-2	0	0.039
GW	602	2	dir3	-2	0	dir3	-2	-4	0.039
GW	603	2	dir3	-2	-4	dir3	-2	-8	0.039
GW	604	2	dir3	-2	-8	dir3	-2	-12	0.039
GW	605	2	dir3	0	12	dir3	0	8	0.039
GW	606	2	dir3	0	8	dir3	0	4	0.039
GW	607	2	dir3	0	-4	dir3	0	-8	0.039
GW	608	2	dir3	0	-8	dir3	0	-12	0.039
GW	609	2	dir3	2	12	dir3	2	8	0.039
GW	610	2	dir3	2	8	dir3	2	4	0.039
GW	611	2	dir3	2	4	dir3	2	0	0.039
GW	612	2	dir3	2	0	dir3	2	-4	0.039
GW	613	2	dir3	2	-4	dir3	2	-8	0.039
GW	614	2	dir3	2	-8	dir3	2	-12	0.039
GW	615	2	dir3	4	12	dir3	4	8	0.039
GW	616	2	dir3	4	8	dir3	4	4	0.039
GW	617	2	dir3	4	4	dir3	4	0	0.039
GW	618	2	dir3	4	0	dir3	4	-4	0.039
GW	619	2	dir3	4	-4	dir3	4	-8	0.039
GW	620	2	dir3	4	-8	dir3	4	-12	0.039
GW	621	2	dir3	6	12	dir3	6	8	0.039
GW	622	2	dir3	6	8	dir3	6	4	0.039
GW	623	2	dir3	6	4	dir3	6	0	0.039
GW	624	2	dir3	6	0	dir3	6	-4	0.039
GW	625	2	dir3	6	-4	dir3	6	-8	0.039
GW	626	2	dir3	6	-8	dir3	6	-12	0.039
GW	627	2	dir3	8	12	dir3	8	8	0.039
GW	628	2	dir3	8	8	dir3	8	4	0.039
GW	629	2	dir3	8	4	dir3	8	0	0.039
GW	630	2	dir3	8	0	dir3	8	-4	0.039
GW	631	2	dir3	8	-4	dir3	8	-8	0.039
GW	632	2	dir3	8	-8	dir3	8	-12	0.039
GW	633	2	dir3	10	12	dir3	10	8	0.039
GW	634	2	dir3	10	8	dir3	10	4	0.039
GW	635	2	dir3	10	4	dir3	10	0	0.039
GW	636	2	dir3	10	0	dir3	10	-4	0.039
GW	637	2	dir3	10	-4	dir3	10	-8	0.039
GW	638	2	dir3	10	-8	dir3	10	-12	0.039
GW	639	2	dir3	12	12	dir3	12	8	0.039
GW	640	2	dir3	12	8	dir3	12	4	0.039
GW	641	2	dir3	12	4	dir3	12	0	0.039
GW	642	2	dir3	12	0	dir3	12	-4	0.039
GW	643	2	dir3	12	-4	dir3	12	-8	0.039
GW	644	2	dir3	12	-8	dir3	12	-12	0.039
GW	645	1	dir4	-12	12	dir4	-10	12	0.039
GW	646	1	dir4	-10	12	dir4	-8	12	0.039
GW	647	1	dir4	-8	12	dir4	-6	12	0.039
GW	648	1	dir4	-6	12	dir4	-4	12	0.039
GW	649	1	dir4	-4	12	dir4	-2	12	0.039
GW	650	1	dir4	-2	12	dir4	0	12	0.039
GW	651	1	dir4	0	12	dir4	2	12	0.039
GW	652	1	dir4	2	12	dir4	4	12	0.039
GW	653	1	dir4	4	12	dir4	6	12	0.039
GW	654	1	dir4	6	12	dir4	8	12	0.039
GW	655	1	dir4	8	12	dir4	10	12	0.039
GW	656	1	dir4	10	12	dir4	12	12	0.039
GW	657	1	dir4	-12	8	dir4	-10	8	0.039
GW	658	1	dir4	-10	8	dir4	-8	8	0.039
GW	659	1	dir4	-8	8	dir4	-6	8	0.039
GW	660	1	dir4	-6	8	dir4	-4	8	0.039
GW	661	1	dir4	-4	8	dir4	-2	8	0.039
GW	662	1	dir4	-2	8	dir4	0	8	0.039
GW	663	1	dir4	0	8	dir4	2	8	0.039
GW	664	1	dir4	2	8	dir4	4	8	0.039
GW	665	1	dir4	4	8	dir4	6	8	0.039
GW	666	1	dir4	6	8	dir4	8	8	0.039
GW	667	1	dir4	8	8	dir4	10	8	0.039
GW	668	1	dir4	10	8	dir4	12	8	0.039
GW	669	1	dir4	-12	4	dir4	-10	4	0.039
GW	670	1	dir4	-10	4	dir4	-8	4	0.039
GW	671	1	dir4	-8	4	dir4	-6	4	0.039
GW	672	1	dir4	-6	4	dir4	-4	4	0.039
GW	673	1	dir4	-4	4	dir4	-2	4	0.039
GW	674	1	dir4	-2	4	dir4	0	4	0.039
GW	675	1	dir4	0	4	dir4	2	4	0.039
GW	676	1	dir4	2	4	dir4	4	4	0.039
GW	677	1	dir4	4	4	dir4	6	4	0.039
GW	678	1	dir4	6	4	dir4	8	4	0.039
GW	679	1	dir4	8	4	dir4	10	4	0.039
GW	680	1	dir4	10	4	dir4	12	4	0.039
GW	681	1	dir4	-12	0	dir4	-10	0	0.039
GW	682	1	dir4	-10	0	dir4	-8	0	0.039
GW	683	1	dir4	-8	0	dir4	-6	0	0.039
GW	684	1	dir4	-6	0	dir4	-4	0	0.039
GW	685	1	dir4	-4	0	dir4	-2	0	0.039
GW	686	1	dir4	2	0	dir4	4	0	0.039
GW	687	1	dir4	4	0	dir4	6	0	0.039
GW	688	1	dir4	6	0	dir4	8	0	0.039
GW	689	1	dir4	8	0	dir4	10	0	0.039
GW	690	1	dir4	10	0	dir4	12	0	0.039
GW	691	1	dir4	-12	-4	dir4	-10	-4	0.039
GW	692	1	dir4	-10	-4	dir4	-8	-4	0.039
GW	693	1	dir4	-8	-4	dir4	-6	-4	0.039
GW	694	1	dir4	-6	-4	dir4	-4	-4	0.039
GW	695	1	dir4	-4	-4	dir4	-2	-4	0.039
GW	696	1	dir4	-2	-4	dir4	0	-4	0.039
GW	697	1	dir4	0	-4	dir4	2	-4	0.039
GW	698	1	dir4	2	-4	dir4	4	-4	0.039
GW	699	1	dir4	4	-4	dir4	6	-4	0.039
GW	700	1	dir4	6	-4	dir4	8	-4	0.039
GW	701	1	dir4	8	-4	dir4	10	-4	0.039
GW	702	1	dir4	10	-4	dir4	12	-4	0.039
GW	703	1	dir4	-12	-8	dir4	-10	-8	0.039
GW	704	1	dir4	-10	-8	dir4	-8	-8	0.039
GW	705	1	dir4	-8	-8	dir4	-6	-8	0.039
GW	706	1	dir4	-6	-8	dir4	-4	-8	0.039
GW	707	1	dir4	-4	-8	dir4	-2	-8	0.039
GW	708	1	dir4	-2	-8	dir4	0	-8	0.039
GW	709	1	dir4	0	-8	dir4	2	-8	0.039
GW	710	1	dir4	2	-8	dir4	4	-8	0.039
GW	711	1	dir4	4	-8	dir4	6	-8	0.039
GW	712	1	dir4	6	-8	dir4	8	-8	0.039
GW	713	1	dir4	8	-8	dir4	10	-8	0.039
GW	714	1	dir4	10	-8	dir4	12	-8	0.039
GW	715	1	dir4	-12	-12	dir4	-10	-12	0.039
GW	716	1	dir4	-10	-12	dir4	-8	-12	0.039
GW	717	1	dir4	-8	-12	dir4	-6	-12	0.039
GW	718	1	dir4	-6	-12	dir4	-4	-12	0.039
GW	719	1	dir4	-4	-12	dir4	-2	-12	0.039
GW	720	1	dir4	-2	-12	dir4	0	-12	0.039
GW	721	1	dir4	0	-12	dir4	2	-12	0.039
GW	722	1	dir4	2	-12	dir4	4	-12	0.039
GW	723	1	dir4	4	-12	dir4	6	-12	0.039
GW	724	1	dir4	6	-12	dir4	8	-12	0.039
GW	725	1	dir4	8	-12	dir4	10	-12	0.039
GW	726	1	dir4	10	-12	dir4	12	-12	0.039
GW	727	2	dir4	-12	12	dir4	-12	8	0.039
GW	728	2	dir4	-12	8	dir4	-12	4	0.039
GW	729	2	dir4	-12	4	dir4	-12	0	0.039
GW	730	2	dir4	-12	0	dir4	-12	-4	0.039
GW	731	2	dir4	-12	-4	dir4	-12	-8	0.039
GW	732	2	dir4	-12	-8	dir4	-12	-12	0.039
GW	733	2	dir4	-10	12	dir4	-10	8	0.039
GW	734	2	dir4	-10	8	dir4	-10	4	0.039
GW	735	2	dir4	-10	4	dir4	-10	0	0.039
GW	736	2	dir4	-10	0	dir4	-10	-4	0.039
GW	737	2	dir4	-10	-4	dir4	-10	-8	0.039
GW	738	2	dir4	-10	-8	dir4	-10	-12	0.039
GW	739	2	dir4	-8	12	dir4	-8	8	0.039
GW	740	2	dir4	-8	8	dir4	-8	4	0.039
GW	741	2	dir4	-8	4	dir4	-8	0	0.039
GW	742	2	dir4	-8	0	dir4	-8	-4	0.039
GW	743	2	dir4	-8	-4	dir4	-8	-8	0.039
GW	744	2	dir4	-8	-8	dir4	-8	-12	0.039
GW	745	2	dir4	-6	12	dir4	-6	8	0.039
GW	746	2	dir4	-6	8	dir4	-6	4	0.039
GW	747	2	dir4	-6	4	dir4	-6	0	0.039
GW	748	2	dir4	-6	0	dir4	-6	-4	0.039
GW	749	2	dir4	-6	-4	dir4	-6	-8	0.039
GW	750	2	dir4	-6	-8	dir4	-6	-12	0.039
GW	751	2	dir4	-4	12	dir4	-4	8	0.039
GW	752	2	dir4	-4	8	dir4	-4	4	0.039
GW	753	2	dir4	-4	4	dir4	-4	0	0.039
GW	754	2	dir4	-4	0	dir4	-4	-4	0.039
GW	755	2	dir4	-4	-4	dir4	-4	-8	0.039
GW	756	2	dir4	-4	-8	dir4	-4	-12	0.039
GW	757	2	dir4	-2	12	dir4	-2	8	0.039
GW	758	2	dir4	-2	8	dir4	-2	4	0.039
GW	759	2	dir4	-2	4	dir4	-2	0	0.039
GW	760	2	dir4	-2	0	dir4	-2	-4	0.039
GW	761	2	dir4	-2	-4	dir4	-2	-8	0.039
GW	762	2	dir4	-2	-8	dir4	-2	-12	0.039
GW	763	2	dir4	0	12	dir4	0	8	0.039
GW	764	2	dir4	0	8	dir4	0	4	0.039
GW	765	2	dir4	0	-4	dir4	0	-8	0.039
GW	766	2	dir4	0	-8	dir4	0	-12	0.039
GW	767	2	dir4	2	12	dir4	2	8	0.039
GW	768	2	dir4	2	8	dir4	2	4	0.039
GW	769	2	dir4	2	4	dir4	2	0	0.039
GW	770	2	dir4	2	0	dir4	2	-4	0.039
GW	771	2	dir4	2	-4	dir4	2	-8	0.039
GW	772	2	dir4	2	-8	dir4	2	-12	0.039
GW	773	2	dir4	4	12	dir4	4	8	0.039
GW	774	2	dir4	4	8	dir4	4	4	0.039
GW	775	2	dir4	4	4	dir4	4	0	0.039
GW	776	2	dir4	4	0	dir4	4	-4	0.039
GW	777	2	dir4	4	-4	dir4	4	-8	0.039
GW	778	2	dir4	4	-8	dir4	4	-12	0.039
GW	779	2	dir4	6	12	dir4	6	8	0.039
GW	780	2	dir4	6	8	dir4	6	4	0.039
GW	781	2	dir4	6	4	dir4	6	0	0.039
GW	782	2	dir4	6	0	dir4	6	-4	0.039
GW	783	2	dir4	6	-4	dir4	6	-8	0.039
GW	784	2	dir4	6	-8	dir4	6	-12	0.039
GW	785	2	dir4	8	12	dir4	8	8	0.039
GW	786	2	dir4	8	8	dir4	8	4	0.039
GW	787	2	dir4	8	4	dir4	8	0	0.039
GW	788	2	dir4	8	0	dir4	8	-4	0.039
GW	789	2	dir4	8	-4	dir4	8	-8	0.039
GW	790	2	dir4	8	-8	dir4	8	-12	0.039
GW	791	2	dir4	10	12	dir4	10	8	0.039
GW	792	2	dir4	10	8	dir4	10	4	0.039
GW	793	2	dir4	10	4	dir4	10	0	0.039
GW	794	2	dir4	10	0	dir4	10	-4	0.039
GW	795	2	dir4	10	-4	dir4	10	-8	0.039
GW	796	2	dir4	10	-8	dir4	10	-12	0.039
GW	797	2	dir4	12	12	dir4	12	8	0.039
GW	798	2	dir4	12	8	dir4	12	4	0.039
GW	799	2	dir4	12	4	dir4	12	0	0.039
GW	800	2	dir4	12	0	dir4	12	-4	0.039
GW	801	2	dir4	12	-4	dir4	12	-8	0.039
GW	802	2	dir4	12	-8	dir4	12	-12	0.039
GW	803	1	-ref	-16	12	-ref	-14	12	0.039
GW	804	1	-ref	-14	12	-ref	-12	12	0.039
GW	805	1	-ref	-12	12	-ref	-10	12	0.039
GW	806	1	-ref	-10	12	-ref	-8	12	0.039
GW	807	1	-ref	-8	12	-ref	-6	12	0.039
GW	808	1	-ref	-6	12	-ref	-4	12	0.039
GW	809	1	-ref	-4	12	-ref	-2	12	0.039
GW	810	1	-ref	-2	12	-ref	0	12	0.039
GW	811	1	-ref	0	12	-ref	2	12	0.039
GW	812	1	-ref	2	12	-ref	4	12	0.039
GW	813	1	-ref	4	12	-ref	6	12	0.039
GW	814	1	-ref	6	12	-ref	8	12	0.039
GW	815	1	-ref	8	12	-ref	10	12	0.039
GW	816	1	-ref	10	12	-ref	12	12	0.039
GW	817	1	-ref	12	12	-ref	14	12	0.039
GW	818	1	-ref	14	12	-ref	16	12	0.039
GW	819	1	-ref	-16	8	-ref	-14	8	0.039
GW	820	1	-ref	-14	8	-ref	-12	8	0.039
GW	821	1	-ref	-12	8	-ref	-10	8	0.039
GW	822	1	-ref	-10	8	-ref	-8	8	0.039
GW	823	1	-ref	-8	8	-ref	-6	8	0.039
GW	824	1	-ref	-6	8	-ref	-4	8	0.039
GW	825	1	-ref	-4	8	-ref	-2	8	0.039
GW	826	1	-ref	-2	8	-ref	0	8	0.039
GW	827	1	-ref	0	8	-ref	2	8	0.039
GW	828	1	-ref	2	8	-ref	4	8	0.039
GW	829	1	-ref	4	8	-ref	6	8	0.039
GW	830	1	-ref	6	8	-ref	8	8	0.039
GW	831	1	-ref	8	8	-ref	10	8	0.039
GW	832	1	-ref	10	8	-ref	12	8	0.039
GW	833	1	-ref	12	8	-ref	14	8	0.039
GW	834	1	-ref	14	8	-ref	16	8	0.039
GW	835	1	-ref	-16	4	-ref	-14	4	0.039
GW	836	1	-ref	-14	4	-ref	-12	4	0.039
GW	837	1	-ref	-12	4	-ref	-10	4	0.039
GW	838	1	-ref	-10	4	-ref	-8	4	0.039
GW	839	1	-ref	-8	4	-ref	-6	4	0.039
GW	840	1	-ref	-6	4	-ref	-4	4	0.039
GW	841	1	-ref	-4	4	-ref	-2	4	0.039
GW	842	1	-ref	-2	4	-ref	0	4	0.039
GW	843	1	-ref	0	4	-ref	2	4	0.039
GW	844	1	-ref	2	4	-ref	4	4	0.039
GW	845	1	-ref	4	4	-ref	6	4	0.039
GW	846	1	-ref	6	4	-ref	8	4	0.039
GW	847	1	-ref	8	4	-ref	10	4	0.039
GW	848	1	-ref	10	4	-ref	12	4	0.039
GW	849	1	-ref	12	4	-ref	14	4	0.039
GW	850	1	-ref	14	4	-ref	16	4	0.039
GW	851	1	-ref	-16	0	-ref	-14	0	0.039
GW	852	1	-ref	-14	0	-ref	-12	0	0.039
GW	853	1	-ref	-12	0	-ref	-10	0	0.039
GW	854	1	-ref	-10	0	-ref	-8	0	0.039
GW	855	1	-ref	-8	0	-ref	-6	0	0.039
GW	856	1	-ref	-6	0	-ref	-4	0	0.039
GW	857	1	-ref	-4	0	-ref	-2	0	0.039
GW	860	1	-ref	2	0	-ref	4	0	0.039
GW	861	1	-ref	4	0	-ref	6	0	0.039
GW	862	1	-ref	6	0	-ref	8	0	0.039
GW	863	1	-ref	8	0	-ref	10	0	0.039
GW	864	1	-ref	10	0	-ref	12	0	0.039
GW	865	1	-ref	12	0	-ref	14	0	0.039
GW	866	1	-ref	14	0	-ref	16	0	0.039
GW	867	1	-ref	-16	-4	-ref	-14	-4	0.039
GW	868	1	-ref	-14	-4	-ref	-12	-4	0.039
GW	869	1	-ref	-12	-4	-ref	-10	-4	0.039
GW	870	1	-ref	-10	-4	-ref	-8	-4	0.039
GW	871	1	-ref	-8	-4	-ref	-6	-4	0.039
GW	872	1	-ref	-6	-4	-ref	-4	-4	0.039
GW	873	1	-ref	-4	-4	-ref	-2	-4	0.039
GW	874	1	-ref	-2	-4	-ref	0	-4	0.039
GW	875	1	-ref	0	-4	-ref	2	-4	0.039
GW	876	1	-ref	2	-4	-ref	4	-4	0.039
GW	877	1	-ref	4	-4	-ref	6	-4	0.039
GW	878	1	-ref	6	-4	-ref	8	-4	0.039
GW	879	1	-ref	8	-4	-ref	10	-4	0.039