CM Joop's yagi 75 ohms
CM freq       = 863.000 MHz
CM maxlength  =      37.50 mm
CM wrad       =       2.50 mm
CM stacked    = no
CM # elementen=         28
CM
CE End of comments
GW   1   3   0.00000   0.00000   0.00000  -0.08500   0.00000   0.00000   0.00250
GW   2   3   0.00000   0.00000   0.00000   0.08500   0.00000   0.00000   0.00250
GW   3   3   0.00000   0.08350   0.00000   0.08920   0.08350   0.00000   0.00200
GW   4   3	 0.00000   0.08350   0.00000  -0.08920   0.08350   0.00000   0.00200
GW   5   3   0.00000   0.10300   0.00000  -0.07500   0.10300   0.00000   0.00250
GW   6   3   0.00000   0.10300   0.00000   0.07500   0.10300   0.00000   0.00250
GW   7   3   0.00000   0.16750   0.00000  -0.07350   0.16750   0.00000   0.00250
GW   8   3   0.00000   0.16750   0.00000   0.07350   0.16750   0.00000   0.00250
GW   9   3   0.00000   0.24250   0.00000  -0.07250   0.24250   0.00000   0.00250
GW  10   3   0.00000   0.24250   0.00000   0.07250   0.24250   0.00000   0.00250
GW  11   3   0.00000   0.33050   0.00000  -0.07200   0.33050   0.00000   0.00250
GW  12   3   0.00000   0.33050   0.00000   0.07200   0.33050   0.00000   0.00250
GW  13   3   0.00000   0.42950   0.00000  -0.07050   0.42950   0.00000   0.00250
GW  14   3   0.00000   0.42950   0.00000   0.07050   0.42950   0.00000   0.00250
GW  15   3   0.00000   0.53550   0.00000  -0.07000   0.53550   0.00000   0.00250
GW  16   3   0.00000   0.53550   0.00000   0.07000   0.53550   0.00000   0.00250
GW  17   3   0.00000   0.64600   0.00000  -0.06900   0.64600   0.00000   0.00250
GW  18   3   0.00000   0.64600   0.00000   0.06900   0.64600   0.00000   0.00250
GW  19   3   0.00000   0.76150   0.00000  -0.06850   0.76150   0.00000   0.00250
GW  20   3   0.00000   0.76150   0.00000   0.06850   0.76150   0.00000   0.00250
GW  21   3   0.00000   0.88300   0.00000  -0.06850   0.88300   0.00000   0.00250
GW  22   3   0.00000   0.88300   0.00000   0.06850   0.88300   0.00000   0.00250
GW  23   3   0.00000   1.00850   0.00000  -0.06800   1.00850   0.00000   0.00250
GW  24   3   0.00000   1.00850   0.00000   0.06800   1.00850   0.00000   0.00250
GW  25   3   0.00000   1.13900   0.00000  -0.06750   1.13900   0.00000   0.00250
GW  26   3   0.00000   1.13900   0.00000   0.06750   1.13900   0.00000   0.00250
GW  27   3   0.00000   1.27550   0.00000  -0.06700   1.27550   0.00000   0.00250
GW  28   3   0.00000   1.27550   0.00000   0.06700   1.27550   0.00000   0.00250
GW  29   3   0.00000   1.41500   0.00000  -0.06600   1.41500   0.00000   0.00250
GW  30   3   0.00000   1.41500   0.00000   0.06600   1.41500   0.00000   0.00250
GW  31   3   0.00000   1.55500   0.00000  -0.06600   1.55500   0.00000   0.00250
GW  32   3   0.00000   1.55500   0.00000   0.06600   1.55500   0.00000   0.00250
GW  33   3   0.00000   1.69450   0.00000  -0.06600   1.69450   0.00000   0.00250
GW  34   3   0.00000   1.69450   0.00000   0.06600   1.69450   0.00000   0.00250
GW  35   3   0.00000   1.83400   0.00000  -0.06550   1.83400   0.00000   0.00250
GW  36   3   0.00000   1.83400   0.00000   0.06550   1.83400   0.00000   0.00250
GW  37   3   0.00000   1.97350   0.00000  -0.06550   1.97350   0.00000   0.00250
GW  38   3   0.00000   1.97350   0.00000   0.06550   1.97350   0.00000   0.00250
GW  39   3   0.00000   2.11300   0.00000  -0.06550   2.11300   0.00000   0.00250
GW  40   3   0.00000   2.11300   0.00000   0.06550   2.11300   0.00000   0.00250
GW  41   3   0.00000   2.25250   0.00000  -0.06500   2.25250   0.00000   0.00250
GW  42   3   0.00000   2.25250   0.00000   0.06500   2.25250   0.00000   0.00250
GW  43   3   0.00000   2.39200   0.00000  -0.06500   2.39200   0.00000   0.00250
GW  44   3   0.00000   2.39200   0.00000   0.06500   2.39200   0.00000   0.00250
GW  45   3   0.00000   2.53150   0.00000  -0.06450   2.53150   0.00000   0.00250
GW  46   3   0.00000   2.53150   0.00000   0.06450   2.53150   0.00000   0.00250
GW  47   3   0.00000   2.67100   0.00000  -0.06450   2.67100   0.00000   0.00250
GW  48   3   0.00000   2.67100   0.00000   0.06450   2.67100   0.00000   0.00250
GW  49   3   0.00000   2.81050   0.00000  -0.06450   2.81050   0.00000   0.00250
GW  50   3   0.00000   2.81050   0.00000   0.06450   2.81050   0.00000   0.00250
GW  51   3   0.00000   2.95050   0.00000  -0.06450   2.95050   0.00000   0.00250
GW  52   3   0.00000   2.95050   0.00000   0.06450   2.95050   0.00000   0.00250
GW  53   3   0.00000   3.08500   0.00000  -0.06350   3.08500   0.00000   0.00250
GW  54   3   0.00000   3.08500   0.00000   0.06350   3.08500   0.00000   0.00250
GW  55   3   0.00000   3.21200   0.00000  -0.06350   3.21200   0.00000   0.00250
GW  56   3   0.00000   3.21200   0.00000   0.06350   3.21200   0.00000   0.00250
GE  0
FR	0	15	0	0	863.00	0.500
EX  0    3    1   00      1.00      0.00
EX  0    4    1   00     -1.00      0.00
RP  0    1  721 1000     90.00    -90.00     10.00      0.50
EN

