CM  I5TDJ MARK II 26 el  432 Mhz
CM Freespace correction = -1.7 mm on Dipoles
CM for 15x15 mm metal boom.
CMPP  1, 0, 0, 0, 0
CM Feedpoint at puls 19             modified by I2KFX  17/10/1997
CM Wire  Seg    X1      Y1      Z1      X2      Y2      Z2      Rad
CE -----------------------------------------------------------------
GW,  1,  12,    -.166,  -.16565, 0,    -.166,    .16565, 0,    .0015
GW,  2,  13,    0,      -.1625,  0,      0,      .1625,  0,     .003
GW,  3,  12,    .053,   -.15615, 0,      .053,   .15615, 0,    .0015
GW,  4,  12,    .1775,  -.15365, 0,      .1775,  .15365, 0,    .0015
GW,  5,  12,    .327,   -.15165, 0,      .327,   .15165, 0,    .0015
GW,  6,  12,    .500,   -.14965, 0,      .500,   .14965, 0,    .0015
GW,  7,  12,    .6945,  -.14765, 0,      .6945,  .14765, 0,    .0015
GW,  8,  12,    .903,   -.14565, 0,      .903,   .14565, 0,    .0015
GW,  9,  12,   1.121,   -.14465, 0,     1.121,   .14465, 0,    .0015
GW, 10,  12,   1.350,   -.14365, 0,     1.350,   .14365, 0,    .0015
GW, 11,  12,   1.590,   -.14290, 0,     1.590,   .14290, 0,    .0015
GW, 12,  12,   1.839,   -.14215, 0,     1.839,   .14215, 0,    .0015
GW, 13,  12,   2.100,   -.14145, 0,     2.100,   .14145, 0,    .0015
GW, 14,  12,   2.367,   -.14085, 0,     2.367,   .14085, 0,    .0015
GW, 15,  12,   2.637,   -.14025, 0,     2.637,   .14025, 0,    .0015
GW, 16,  12,   2.912,   -.13965, 0,     2.912,   .13965, 0,    .0015
GW, 17,  12,   3.189,   -.13925, 0,     3.189,   .13925, 0,    .0015
GW, 18,  12,   3.467,   -.13875, 0,     3.467,   .13875, 0,    .0015
GW, 19,  12,   3.744,   -.13835, 0,     3.744,   .13835, 0,    .0015
GW, 20,  12,   4.022,   -.13795, 0,     4.022,   .13795, 0,    .0015
GW, 21,  12,   4.300,   -.13755, 0,     4.300,   .13755, 0,    .0015
GW, 22,  12,   4.577,   -.13715, 0,     4.577,   .13715, 0,    .0015
GW, 23,  12,   4.855,   -.13685, 0,     4.855,   .13685, 0,    .0015
GW, 24,  12,   5.132,   -.13650, 0,     5.132,   .13650, 0,    .0015
GW, 25,  12,   5.410,   -.13615, 0,     5.410,   .13615, 0,    .0015
GW, 26,  12,   5.688,   -.13590, 0,     5.688,   .13590, 0,    .0015
GE  0,
FR  0,0,0,0, 432,
EX  0, 2, 7,0,1., 0.,
EN
