CM 3800 segment parabola, requires nec2d4k (>= 256 Mb ram)
CM Generated with 4nec2 Geometry-Builder.
CM Used for testing input-file loading time (22-apr-02: 8.5 sec's)
CM
CM Focus pnt = 0.055, Apperture = .22, Nr X wires = 50, Nr Y wires = 50
CM Rotate X, Y, Z = 0, 90, 0, Move X, Y, Z = 0, 0, 0
CM
CM You may compare this with the Patch50.nec antenna
CE
'GW    1   1     .055   -.0308    .1056  .053856   -.0264    .1056     .001
GW    2   1  .053856   -.0264    .1056  .052888    -.022    .1056     .001
GW    3   1  .052888    -.022    .1056  .052096   -.0176    .1056     .001
GW    4   1  .052096   -.0176    .1056   .05148   -.0132    .1056     .001
GW    5   1   .05148   -.0132    .1056   .05104   -.0088    .1056     .001
GW    6   1   .05104   -.0088    .1056  .050776   -.0044    .1056     .001
GW    7   1  .050776   -.0044    .1056  .050688       .0    .1056     .001
GW    8   1  .050688       .0    .1056  .050776    .0044    .1056     .001
GW    9   1  .050776    .0044    .1056   .05104    .0088    .1056     .001
GW   10   1   .05104    .0088    .1056   .05148    .0132    .1056     .001
GW   11   1   .05148    .0132    .1056  .052096    .0176    .1056     .001
GW   12   1  .052096    .0176    .1056  .052888     .022    .1056     .001
GW   13   1  .052888     .022    .1056  .053856    .0264    .1056     .001
GW   14   1   .05368   -.0396    .1012  .052184   -.0352    .1012     .001
GW   15   1  .052184   -.0352    .1012  .050864   -.0308    .1012     .001
GW   16   1  .050864   -.0308    .1012   .04972   -.0264    .1012     .001
GW   17   1   .04972   -.0264    .1012  .048752    -.022    .1012     .001
GW   18   1  .048752    -.022    .1012   .04796   -.0176    .1012     .001
GW   19   1   .04796   -.0176    .1012  .047344   -.0132    .1012     .001
GW   20   1  .047344   -.0132    .1012  .046904   -.0088    .1012     .001
GW   21   1  .046904   -.0088    .1012   .04664   -.0044    .1012     .001
GW   22   1   .04664   -.0044    .1012  .046552       .0    .1012     .001
GW   23   1  .046552       .0    .1012   .04664    .0044    .1012     .001
GW   24   1   .04664    .0044    .1012  .046904    .0088    .1012     .001
GW   25   1  .046904    .0088    .1012  .047344    .0132    .1012     .001
GW   26   1  .047344    .0132    .1012   .04796    .0176    .1012     .001
GW   27   1   .04796    .0176    .1012  .048752     .022    .1012     .001
GW   28   1  .048752     .022    .1012   .04972    .0264    .1012     .001
GW   29   1   .04972    .0264    .1012  .050864    .0308    .1012     .001
GW   30   1  .050864    .0308    .1012  .052184    .0352    .1012     .001
GW   31   1  .052184    .0352    .1012   .05368    .0396    .1012     .001
GW   32   1   .05324   -.0484    .0968  .051392    -.044    .0968     .001
GW   33   1  .051392    -.044    .0968   .04972   -.0396    .0968     .001
GW   34   1   .04972   -.0396    .0968  .048224   -.0352    .0968     .001
GW   35   1  .048224   -.0352    .0968  .046904   -.0308    .0968     .001
GW   36   1  .046904   -.0308    .0968   .04576   -.0264    .0968     .001
GW   37   1   .04576   -.0264    .0968  .044792    -.022    .0968     .001
GW   38   1  .044792    -.022    .0968     .044   -.0176    .0968     .001
GW   39   1     .044   -.0176    .0968  .043384   -.0132    .0968     .001
GW   40   1  .043384   -.0132    .0968  .042944   -.0088    .0968     .001
GW   41   1  .042944   -.0088    .0968   .04268   -.0044    .0968     .001
GW   42   1   .04268   -.0044    .0968  .042592       .0    .0968     .001
GW   43   1  .042592       .0    .0968   .04268    .0044    .0968     .001
GW   44   1   .04268    .0044    .0968  .042944    .0088    .0968     .001
GW   45   1  .042944    .0088    .0968  .043384    .0132    .0968     .001
GW   46   1  .043384    .0132    .0968     .044    .0176    .0968     .001
GW   47   1     .044    .0176    .0968  .044792     .022    .0968     .001
GW   48   1  .044792     .022    .0968   .04576    .0264    .0968     .001
GW   49   1   .04576    .0264    .0968  .046904    .0308    .0968     .001
GW   50   1  .046904    .0308    .0968  .048224    .0352    .0968     .001
GW   51   1  .048224    .0352    .0968   .04972    .0396    .0968     .001
GW   52   1   .04972    .0396    .0968  .051392     .044    .0968     .001
GW   53   1  .051392     .044    .0968   .05324    .0484    .0968     .001
GW   54   1   .05368   -.0572    .0924   .05148   -.0528    .0924     .001
GW   55   1   .05148   -.0528    .0924  .049456   -.0484    .0924     .001
GW   56   1  .049456   -.0484    .0924  .047608    -.044    .0924     .001
GW   57   1  .047608    -.044    .0924  .045936   -.0396    .0924     .001
GW   58   1  .045936   -.0396    .0924   .04444   -.0352    .0924     .001
GW   59   1   .04444   -.0352    .0924   .04312   -.0308    .0924     .001
GW   60   1   .04312   -.0308    .0924  .041976   -.0264    .0924     .001
GW   61   1  .041976   -.0264    .0924  .041008    -.022    .0924     .001
GW   62   1  .041008    -.022    .0924  .040216   -.0176    .0924     .001
GW   63   1  .040216   -.0176    .0924    .0396   -.0132    .0924     .001
GW   64   1    .0396   -.0132    .0924   .03916   -.0088    .0924     .001
GW   65   1   .03916   -.0088    .0924  .038896   -.0044    .0924     .001
GW   66   1  .038896   -.0044    .0924  .038808       .0    .0924     .001
GW   67   1  .038808       .0    .0924  .038896    .0044    .0924     .001
GW   68   1  .038896    .0044    .0924   .03916    .0088    .0924     .001
GW   69   1   .03916    .0088    .0924    .0396    .0132    .0924     .001
GW   70   1    .0396    .0132    .0924  .040216    .0176    .0924     .001
GW   71   1  .040216    .0176    .0924  .041008     .022    .0924     .001
GW   72   1  .041008     .022    .0924  .041976    .0264    .0924     .001
GW   73   1  .041976    .0264    .0924   .04312    .0308    .0924     .001
GW   74   1   .04312    .0308    .0924   .04444    .0352    .0924     .001
GW   75   1   .04444    .0352    .0924  .045936    .0396    .0924     .001
GW   76   1  .045936    .0396    .0924  .047608     .044    .0924     .001
GW   77   1  .047608     .044    .0924  .049456    .0484    .0924     .001
GW   78   1  .049456    .0484    .0924   .05148    .0528    .0924     .001
GW   79   1   .05148    .0528    .0924   .05368    .0572    .0924     .001
GW   80   1     .055    -.066     .088  .052448   -.0616     .088     .001
GW   81   1  .052448   -.0616     .088  .050072   -.0572     .088     .001
GW   82   1  .050072   -.0572     .088  .047872   -.0528     .088     .001
GW   83   1  .047872   -.0528     .088  .045848   -.0484     .088     .001
GW   84   1  .045848   -.0484     .088     .044    -.044     .088     .001
GW   85   1     .044    -.044     .088  .042328   -.0396     .088     .001
GW   86   1  .042328   -.0396     .088  .040832   -.0352     .088     .001
GW   87   1  .040832   -.0352     .088  .039512   -.0308     .088     .001
GW   88   1  .039512   -.0308     .088  .038368   -.0264     .088     .001
GW   89   1  .038368   -.0264     .088    .0374    -.022     .088     .001
GW   90   1    .0374    -.022     .088  .036608   -.0176     .088     .001
GW   91   1  .036608   -.0176     .088  .035992   -.0132     .088     .001
GW   92   1  .035992   -.0132     .088  .035552   -.0088     .088     .001
GW   93   1  .035552   -.0088     .088  .035288   -.0044     .088     .001
GW   94   1  .035288   -.0044     .088    .0352       .0     .088     .001
GW   95   1    .0352       .0     .088  .035288    .0044     .088     .001
GW   96   1  .035288    .0044     .088  .035552    .0088     .088     .001
GW   97   1  .035552    .0088     .088  .035992    .0132     .088     .001
GW   98   1  .035992    .0132     .088  .036608    .0176     .088     .001
GW   99   1  .036608    .0176     .088    .0374     .022     .088     .001
GW  100   1    .0374     .022     .088  .038368    .0264     .088     .001
GW  101   1  .038368    .0264     .088  .039512    .0308     .088     .001
GW  102   1  .039512    .0308     .088  .040832    .0352     .088     .001
GW  103   1  .040832    .0352     .088  .042328    .0396     .088     .001
GW  104   1  .042328    .0396     .088     .044     .044     .088     .001
GW  105   1     .044     .044     .088  .045848    .0484     .088     .001
GW  106   1  .045848    .0484     .088  .047872    .0528     .088     .001
GW  107   1  .047872    .0528     .088  .050072    .0572     .088     .001
GW  108   1  .050072    .0572     .088  .052448    .0616     .088     .001
GW  109   1  .054296   -.0704    .0836  .051568    -.066    .0836     .001
GW  110   1  .051568    -.066    .0836  .049016   -.0616    .0836     .001
GW  111   1  .049016   -.0616    .0836   .04664   -.0572    .0836     .001
GW  112   1   .04664   -.0572    .0836   .04444   -.0528    .0836     .001
GW  113   1   .04444   -.0528    .0836  .042416   -.0484    .0836     .001
GW  114   1  .042416   -.0484    .0836  .040568    -.044    .0836     .001
GW  115   1  .040568    -.044    .0836  .038896   -.0396    .0836     .001
GW  116   1  .038896   -.0396    .0836    .0374   -.0352    .0836     .001
GW  117   1    .0374   -.0352    .0836   .03608   -.0308    .0836     .001
GW  118   1   .03608   -.0308    .0836  .034936   -.0264    .0836     .001
GW  119   1  .034936   -.0264    .0836  .033968    -.022    .0836     .001
GW  120   1  .033968    -.022    .0836  .033176   -.0176    .0836     .001
GW  121   1  .033176   -.0176    .0836   .03256   -.0132    .0836     .001
GW  122   1   .03256   -.0132    .0836   .03212   -.0088    .0836     .001
GW  123   1   .03212   -.0088    .0836  .031856   -.0044    .0836     .001
GW  124   1  .031856   -.0044    .0836  .031768       .0    .0836     .001
GW  125   1  .031768       .0    .0836  .031856    .0044    .0836     .001
GW  126   1  .031856    .0044    .0836   .03212    .0088    .0836     .001
GW  127   1   .03212    .0088    .0836   .03256    .0132    .0836     .001
GW  128   1   .03256    .0132    .0836  .033176    .0176    .0836     .001
GW  129   1  .033176    .0176    .0836  .033968     .022    .0836     .001
GW  130   1  .033968     .022    .0836  .034936    .0264    .0836     .001
GW  131   1  .034936    .0264    .0836   .03608    .0308    .0836     .001
GW  132   1   .03608    .0308    .0836    .0374    .0352    .0836     .001
GW  133   1    .0374    .0352    .0836  .038896    .0396    .0836     .001
GW  134   1  .038896    .0396    .0836  .040568     .044    .0836     .001
GW  135   1  .040568     .044    .0836  .042416    .0484    .0836     .001
GW  136   1  .042416    .0484    .0836   .04444    .0528    .0836     .001
GW  137   1   .04444    .0528    .0836   .04664    .0572    .0836     .001
GW  138   1   .04664    .0572    .0836  .049016    .0616    .0836     .001
GW  139   1  .049016    .0616    .0836  .051568     .066    .0836     .001
GW  140   1  .051568     .066    .0836  .054296    .0704    .0836     .001
GW  141   1  .053944   -.0748    .0792   .05104   -.0704    .0792     .001
GW  142   1   .05104   -.0704    .0792  .048312    -.066    .0792     .001
GW  143   1  .048312    -.066    .0792   .04576   -.0616    .0792     .001
GW  144   1   .04576   -.0616    .0792  .043384   -.0572    .0792     .001
GW  145   1  .043384   -.0572    .0792  .041184   -.0528    .0792     .001
GW  146   1  .041184   -.0528    .0792   .03916   -.0484    .0792     .001
GW  147   1   .03916   -.0484    .0792  .037312    -.044    .0792     .001
GW  148   1  .037312    -.044    .0792   .03564   -.0396    .0792     .001
GW  149   1   .03564   -.0396    .0792  .034144   -.0352    .0792     .001
GW  150   1  .034144   -.0352    .0792  .032824   -.0308    .0792     .001
GW  151   1  .032824   -.0308    .0792   .03168   -.0264    .0792     .001
GW  152   1   .03168   -.0264    .0792  .030712    -.022    .0792     .001
GW  153   1  .030712    -.022    .0792   .02992   -.0176    .0792     .001
GW  154   1   .02992   -.0176    .0792  .029304   -.0132    .0792     .001
GW  155   1  .029304   -.0132    .0792  .028864   -.0088    .0792     .001
GW  156   1  .028864   -.0088    .0792    .0286   -.0044    .0792     .001
GW  157   1    .0286   -.0044    .0792  .028512       .0    .0792     .001
GW  158   1  .028512       .0    .0792    .0286    .0044    .0792     .001
GW  159   1    .0286    .0044    .0792  .028864    .0088    .0792     .001
GW  160   1  .028864    .0088    .0792  .029304    .0132    .0792     .001
GW  161   1  .029304    .0132    .0792   .02992    .0176    .0792     .001
GW  162   1   .02992    .0176    .0792  .030712     .022    .0792     .001
GW  163   1  .030712     .022    .0792   .03168    .0264    .0792     .001
GW  164   1   .03168    .0264    .0792  .032824    .0308    .0792     .001
GW  165   1  .032824    .0308    .0792  .034144    .0352    .0792     .001
GW  166   1  .034144    .0352    .0792   .03564    .0396    .0792     .001
GW  167   1   .03564    .0396    .0792  .037312     .044    .0792     .001
GW  168   1  .037312     .044    .0792   .03916    .0484    .0792     .001
GW  169   1   .03916    .0484    .0792  .041184    .0528    .0792     .001
GW  170   1  .041184    .0528    .0792  .043384    .0572    .0792     .001
GW  171   1  .043384    .0572    .0792   .04576    .0616    .0792     .001
GW  172   1   .04576    .0616    .0792  .048312     .066    .0792     .001
GW  173   1  .048312     .066    .0792   .05104    .0704    .0792     .001
GW  174   1   .05104    .0704    .0792  .053944    .0748    .0792     .001
GW  175   1  .053944   -.0792    .0748  .050864   -.0748    .0748     .001
GW  176   1  .050864   -.0748    .0748   .04796   -.0704    .0748     .001
GW  177   1   .04796   -.0704    .0748  .045232    -.066    .0748     .001
GW  178   1  .045232    -.066    .0748   .04268   -.0616    .0748     .001
GW  179   1   .04268   -.0616    .0748  .040304   -.0572    .0748     .001
GW  180   1  .040304   -.0572    .0748  .038104   -.0528    .0748     .001
GW  181   1  .038104   -.0528    .0748   .03608   -.0484    .0748     .001
GW  182   1   .03608   -.0484    .0748  .034232    -.044    .0748     .001
GW  183   1  .034232    -.044    .0748   .03256   -.0396    .0748     .001
GW  184   1   .03256   -.0396    .0748  .031064   -.0352    .0748     .001
GW  185   1  .031064   -.0352    .0748  .029744   -.0308    .0748     .001
GW  186   1  .029744   -.0308    .0748    .0286   -.0264    .0748     .001
GW  187   1    .0286   -.0264    .0748  .027632    -.022    .0748     .001
GW  188   1  .027632    -.022    .0748   .02684   -.0176    .0748     .001
GW  189   1   .02684   -.0176    .0748  .026224   -.0132    .0748     .001
GW  190   1  .026224   -.0132    .0748  .025784   -.0088    .0748     .001
GW  191   1  .025784   -.0088    .0748   .02552   -.0044    .0748     .001
GW  192   1   .02552   -.0044    .0748  .025432       .0    .0748     .001
GW  193   1  .025432       .0    .0748   .02552    .0044    .0748     .001
GW  194   1   .02552    .0044    .0748  .025784    .0088    .0748     .001
GW  195   1  .025784    .0088    .0748  .026224    .0132    .0748     .001
GW  196   1  .026224    .0132    .0748   .02684    .0176    .0748     .001
GW  197   1   .02684    .0176    .0748  .027632     .022    .0748     .001
GW  198   1  .027632     .022    .0748    .0286    .0264    .0748     .001
GW  199   1    .0286    .0264    .0748  .029744    .0308    .0748     .001
GW  200   1  .029744    .0308    .0748  .031064    .0352    .0748     .001
GW  201   1  .031064    .0352    .0748   .03256    .0396    .0748     .001
GW  202   1   .03256    .0396    .0748  .034232     .044    .0748     .001
GW  203   1  .034232     .044    .0748   .03608    .0484    .0748     .001
GW  204   1   .03608    .0484    .0748  .038104    .0528    .0748     .001
GW  205   1  .038104    .0528    .0748  .040304    .0572    .0748     .001
GW  206   1  .040304    .0572    .0748   .04268    .0616    .0748     .001
GW  207   1   .04268    .0616    .0748  .045232     .066    .0748     .001
GW  208   1  .045232     .066    .0748   .04796    .0704    .0748     .001
GW  209   1   .04796    .0704    .0748  .050864    .0748    .0748     .001
GW  210   1  .050864    .0748    .0748  .053944    .0792    .0748     .001
GW  211   1  .054296   -.0836    .0704   .05104   -.0792    .0704     .001
GW  212   1   .05104   -.0792    .0704   .04796   -.0748    .0704     .001
GW  213   1   .04796   -.0748    .0704  .045056   -.0704    .0704     .001
GW  214   1  .045056   -.0704    .0704  .042328    -.066    .0704     .001
GW  215   1  .042328    -.066    .0704  .039776   -.0616    .0704     .001
GW  216   1  .039776   -.0616    .0704    .0374   -.0572    .0704     .001
GW  217   1    .0374   -.0572    .0704    .0352   -.0528    .0704     .001
GW  218   1    .0352   -.0528    .0704  .033176   -.0484    .0704     .001
GW  219   1  .033176   -.0484    .0704  .031328    -.044    .0704     .001
GW  220   1  .031328    -.044    .0704  .029656   -.0396    .0704     .001
GW  221   1  .029656   -.0396    .0704   .02816   -.0352    .0704     .001
GW  222   1   .02816   -.0352    .0704   .02684   -.0308    .0704     .001
GW  223   1   .02684   -.0308    .0704  .025696   -.0264    .0704     .001
GW  224   1  .025696   -.0264    .0704  .024728    -.022    .0704     .001
GW  225   1  .024728    -.022    .0704  .023936   -.0176    .0704     .001
GW  226   1  .023936   -.0176    .0704   .02332   -.0132    .0704     .001
GW  227   1   .02332   -.0132    .0704   .02288   -.0088    .0704     .001
GW  228   1   .02288   -.0088    .0704  .022616   -.0044    .0704     .001
GW  229   1  .022616   -.0044    .0704  .022528       .0    .0704     .001
GW  230   1  .022528       .0    .0704  .022616    .0044    .0704     .001
GW  231   1  .022616    .0044    .0704   .02288    .0088    .0704     .001
GW  232   1   .02288    .0088    .0704   .02332    .0132    .0704     .001
GW  233   1   .02332    .0132    .0704  .023936    .0176    .0704     .001
GW  234   1  .023936    .0176    .0704  .024728     .022    .0704     .001
GW  235   1  .024728     .022    .0704  .025696    .0264    .0704     .001
GW  236   1  .025696    .0264    .0704   .02684    .0308    .0704     .001
GW  237   1   .02684    .0308    .0704   .02816    .0352    .0704     .001
GW  238   1   .02816    .0352    .0704  .029656    .0396    .0704     .001
GW  239   1  .029656    .0396    .0704  .031328     .044    .0704     .001
GW  240   1  .031328     .044    .0704  .033176    .0484    .0704     .001
GW  241   1  .033176    .0484    .0704    .0352    .0528    .0704     .001
GW  242   1    .0352    .0528    .0704    .0374    .0572    .0704     .001
GW  243   1    .0374    .0572    .0704  .039776    .0616    .0704     .001
GW  244   1  .039776    .0616    .0704  .042328     .066    .0704     .001
GW  245   1  .042328     .066    .0704  .045056    .0704    .0704     .001
GW  246   1  .045056    .0704    .0704   .04796    .0748    .0704     .001
GW  247   1   .04796    .0748    .0704   .05104    .0792    .0704     .001
GW  248   1   .05104    .0792    .0704  .054296    .0836    .0704     .001
GW  249   1     .055    -.088     .066  .051568   -.0836     .066     .001
GW  250   1  .051568   -.0836     .066  .048312   -.0792     .066     .001
GW  251   1  .048312   -.0792     .066  .045232   -.0748     .066     .001
GW  252   1  .045232   -.0748     .066  .042328   -.0704     .066     .001
GW  253   1  .042328   -.0704     .066    .0396    -.066     .066     .001
GW  254   1    .0396    -.066     .066  .037048   -.0616     .066     .001
GW  255   1  .037048   -.0616     .066  .034672   -.0572     .066     .001
GW  256   1  .034672   -.0572     .066  .032472   -.0528     .066     .001
GW  257   1  .032472   -.0528     .066  .030448   -.0484     .066     .001
GW  258   1  .030448   -.0484     .066    .0286    -.044     .066     .001
GW  259   1    .0286    -.044     .066  .026928   -.0396     .066     .001
GW  260   1  .026928   -.0396     .066  .025432   -.0352     .066     .001
GW  261   1  .025432   -.0352     .066  .024112   -.0308     .066     .001
GW  262   1  .024112   -.0308     .066  .022968   -.0264     .066     .001
GW  263   1  .022968   -.0264     .066     .022    -.022     .066     .001
GW  264   1     .022    -.022     .066  .021208   -.0176     .066     .001
GW  265   1  .021208   -.0176     .066  .020592   -.0132     .066     .001
GW  266   1  .020592   -.0132     .066  .020152   -.0088     .066     .001
GW  267   1  .020152   -.0088     .066  .019888   -.0044     .066     .001
GW  268   1  .019888   -.0044     .066    .0198       .0     .066     .001
GW  269   1    .0198       .0     .066  .019888    .0044     .066     .001
GW  270   1  .019888    .0044     .066  .020152    .0088     .066     .001
GW  271   1  .020152    .0088     .066  .020592    .0132     .066     .001
GW  272   1  .020592    .0132     .066  .021208    .0176     .066     .001
GW  273   1  .021208    .0176     .066     .022     .022     .066     .001
GW  274   1     .022     .022     .066  .022968    .0264     .066     .001
GW  275   1  .022968    .0264     .066  .024112    .0308     .066     .001
GW  276   1  .024112    .0308     .066  .025432    .0352     .066     .001
GW  277   1  .025432    .0352     .066  .026928    .0396     .066     .001
GW  278   1  .026928    .0396     .066    .0286     .044     .066     .001
GW  279   1    .0286     .044     .066  .030448    .0484     .066     .001
GW  280   1  .030448    .0484     .066  .032472    .0528     .066     .001
GW  281   1  .032472    .0528     .066  .034672    .0572     .066     .001
GW  282   1  .034672    .0572     .066  .037048    .0616     .066     .001
GW  283   1  .037048    .0616     .066    .0396     .066     .066     .001
GW  284   1    .0396     .066     .066  .042328    .0704     .066     .001
GW  285   1  .042328    .0704     .066  .045232    .0748     .066     .001
GW  286   1  .045232    .0748     .066  .048312    .0792     .066     .001
GW  287   1  .048312    .0792     .066  .051568    .0836     .066     .001
GW  288   1  .052448    -.088    .0616  .049016   -.0836    .0616     .001
GW  289   1  .049016   -.0836    .0616   .04576   -.0792    .0616     .001
GW  290   1   .04576   -.0792    .0616   .04268   -.0748    .0616     .001
GW  291   1   .04268   -.0748    .0616  .039776   -.0704    .0616     .001
GW  292   1  .039776   -.0704    .0616  .037048    -.066    .0616     .001
GW  293   1  .037048    -.066    .0616  .034496   -.0616    .0616     .001
GW  294   1  .034496   -.0616    .0616   .03212   -.0572    .0616     .001
GW  295   1   .03212   -.0572    .0616   .02992   -.0528    .0616     .001
GW  296   1   .02992   -.0528    .0616  .027896   -.0484    .0616     .001
GW  297   1  .027896   -.0484    .0616  .026048    -.044    .0616     .001
GW  298   1  .026048    -.044    .0616  .024376   -.0396    .0616     .001
GW  299   1  .024376   -.0396    .0616   .02288   -.0352    .0616     .001
GW  300   1   .02288   -.0352    .0616   .02156   -.0308    .0616     .001
GW  301   1   .02156   -.0308    .0616  .020416   -.0264    .0616     .001
GW  302   1  .020416   -.0264    .0616  .019448    -.022    .0616     .001
GW  303   1  .019448    -.022    .0616  .018656   -.0176    .0616     .001
GW  304   1  .018656   -.0176    .0616   .01804   -.0132    .0616     .001
GW  305   1   .01804   -.0132    .0616    .0176   -.0088    .0616     .001
GW  306   1    .0176   -.0088    .0616  .017336   -.0044    .0616     .001
GW  307   1  .017336   -.0044    .0616  .017248       .0    .0616     .001
GW  308   1  .017248       .0    .0616  .017336    .0044    .0616     .001
GW  309   1  .017336    .0044    .0616    .0176    .0088    .0616     .001
GW  310   1    .0176    .0088    .0616   .01804    .0132    .0616     .001
GW  311   1   .01804    .0132    .0616  .018656    .0176    .0616     .001
GW  312   1  .018656    .0176    .0616  .019448     .022    .0616     .001
GW  313   1  .019448     .022    .0616  .020416    .0264    .0616     .001
GW  314   1  .020416    .0264    .0616   .02156    .0308    .0616     .001
GW  315   1   .02156    .0308    .0616   .02288    .0352    .0616     .001
GW  316   1   .02288    .0352    .0616  .024376    .0396    .0616     .001
GW  317   1  .024376    .0396    .0616  .026048     .044    .0616     .001
GW  318   1  .026048     .044    .0616  .027896    .0484    .0616     .001
GW  319   1  .027896    .0484    .0616   .02992    .0528    .0616     .001
GW  320   1   .02992    .0528    .0616   .03212    .0572    .0616     .001
GW  321   1   .03212    .0572    .0616  .034496    .0616    .0616     .001
GW  322   1  .034496    .0616    .0616  .037048     .066    .0616     .001
GW  323   1  .037048     .066    .0616  .039776    .0704    .0616     .001
GW  324   1  .039776    .0704    .0616   .04268    .0748    .0616     .001
GW  325   1   .04268    .0748    .0616   .04576    .0792    .0616     .001
GW  326   1   .04576    .0792    .0616  .049016    .0836    .0616     .001
GW  327   1  .049016    .0836    .0616  .052448     .088    .0616     .001
GW  328   1   .05368   -.0924    .0572  .050072    -.088    .0572     .001
GW  329   1  .050072    -.088    .0572   .04664   -.0836    .0572     .001
GW  330   1   .04664   -.0836    .0572  .043384   -.0792    .0572     .001
GW  331   1  .043384   -.0792    .0572  .040304   -.0748    .0572     .001
GW  332   1  .040304   -.0748    .0572    .0374   -.0704    .0572     .001
GW  333   1    .0374   -.0704    .0572  .034672    -.066    .0572     .001
GW  334   1  .034672    -.066    .0572   .03212   -.0616    .0572     .001
GW  335   1   .03212   -.0616    .0572  .029744   -.0572    .0572     .001
GW  336   1  .029744   -.0572    .0572  .027544   -.0528    .0572     .001
GW  337   1  .027544   -.0528    .0572   .02552   -.0484    .0572     .001
GW  338   1   .02552   -.0484    .0572  .023672    -.044    .0572     .001
GW  339   1  .023672    -.044    .0572     .022   -.0396    .0572     .001
GW  340   1     .022   -.0396    .0572  .020504   -.0352    .0572     .001
GW  341   1  .020504   -.0352    .0572  .019184   -.0308    .0572     .001
GW  342   1  .019184   -.0308    .0572   .01804   -.0264    .0572     .001
GW  343   1   .01804   -.0264    .0572  .017072    -.022    .0572     .001
GW  344   1  .017072    -.022    .0572   .01628   -.0176    .0572     .001
GW  345   1   .01628   -.0176    .0572  .015664   -.0132    .0572     .001
GW  346   1  .015664   -.0132    .0572  .015224   -.0088    .0572     .001
GW  347   1  .015224   -.0088    .0572   .01496   -.0044    .0572     .001
GW  348   1   .01496   -.0044    .0572  .014872       .0    .0572     .001
GW  349   1  .014872       .0    .0572   .01496    .0044    .0572     .001
GW  350   1   .01496    .0044    .0572  .015224    .0088    .0572     .001
GW  351   1  .015224    .0088    .0572  .015664    .0132    .0572     .001
GW  352   1  .015664    .0132    .0572   .01628    .0176    .0572     .001
GW  353   1   .01628    .0176    .0572  .017072     .022    .0572     .001
GW  354   1  .017072     .022    .0572   .01804    .0264    .0572     .001
GW  355   1   .01804    .0264    .0572  .019184    .0308    .0572     .001
GW  356   1  .019184    .0308    .0572  .020504    .0352    .0572     .001
GW  357   1  .020504    .0352    .0572     .022    .0396    .0572     .001
GW  358   1     .022    .0396    .0572  .023672     .044    .0572     .001
GW  359   1  .023672     .044    .0572   .02552    .0484    .0572     .001
GW  360   1   .02552    .0484    .0572  .027544    .0528    .0572     .001
GW  361   1  .027544    .0528    .0572  .029744    .0572    .0572     .001
GW  362   1  .029744    .0572    .0572   .03212    .0616    .0572     .001
GW  363   1   .03212    .0616    .0572  .034672     .066    .0572     .001
GW  364   1  .034672     .066    .0572    .0374    .0704    .0572     .001
GW  365   1    .0374    .0704    .0572  .040304    .0748    .0572     .001
GW  366   1  .040304    .0748    .0572  .043384    .0792    .0572     .001
GW  367   1  .043384    .0792    .0572   .04664    .0836    .0572     .001
GW  368   1   .04664    .0836    .0572  .050072     .088    .0572     .001
GW  369   1  .050072     .088    .0572   .05368    .0924    .0572     .001
GW  370   1   .05148   -.0924    .0528  .047872    -.088    .0528     .001
GW  371   1  .047872    -.088    .0528   .04444   -.0836    .0528     .001
GW  372   1   .04444   -.0836    .0528  .041184   -.0792    .0528     .001
GW  373   1  .041184   -.0792    .0528  .038104   -.0748    .0528     .001
GW  374   1  .038104   -.0748    .0528    .0352   -.0704    .0528     .001
GW  375   1    .0352   -.0704    .0528  .032472    -.066    .0528     .001
GW  376   1  .032472    -.066    .0528   .02992   -.0616    .0528     .001
GW  377   1   .02992   -.0616    .0528  .027544   -.0572    .0528     .001
GW  378   1  .027544   -.0572    .0528  .025344   -.0528    .0528     .001
GW  379   1  .025344   -.0528    .0528   .02332   -.0484    .0528     .001
GW  380   1   .02332   -.0484    .0528  .021472    -.044    .0528     .001
GW  381   1  .021472    -.044    .0528    .0198   -.0396    .0528     .001
GW  382   1    .0198   -.0396    .0528  .018304   -.0352    .0528     .001
GW  383   1  .018304   -.0352    .0528  .016984   -.0308    .0528     .001
GW  384   1  .016984   -.0308    .0528   .01584   -.0264    .0528     .001
GW  385   1   .01584   -.0264    .0528  .014872    -.022    .0528     .001
GW  386   1  .014872    -.022    .0528   .01408   -.0176    .0528     .001
GW  387   1   .01408   -.0176    .0528  .013464   -.0132    .0528     .001
GW  388   1  .013464   -.0132    .0528  .013024   -.0088    .0528     .001
GW  389   1  .013024   -.0088    .0528   .01276   -.0044    .0528     .001
GW  390   1   .01276   -.0044    .0528  .012672       .0    .0528     .001
GW  391   1  .012672       .0    .0528   .01276    .0044    .0528     .001
GW  392   1   .01276    .0044    .0528  .013024    .0088    .0528     .001
GW  393   1  .013024    .0088    .0528  .013464    .0132    .0528     .001
GW  394   1  .013464    .0132    .0528   .01408    .0176    .0528     .001
GW  395   1   .01408    .0176    .0528  .014872     .022    .0528     .001