CM NEC Input File of a 3 el. Vert. yagi
CM  9 = reflector , 2 = driven , 5 = reflector , 6 = reflector
CE   
GW  9   11  -0.40000  0.000000  -0.53500  -0.40000   0.00000   0.53500   0.01000
GW  2   11   0.00000  0.000000  -0.50000   0.00000   0.00000   0.50000   0.01000
GW  5   11  -0.34000 -0.200000  -0.53500  -0.34000  -0.20000   0.53500   0.01000
GW  6   11  -0.34000  0.200000  -0.53500  -0.34000   0.20000   0.53500   0.01000
GE  0   
FR  0    1    0    0   1.40E+02  0.00E+00  0.00E+00  0.00E+00  0.00E+00  0.00E+00
EX  0    2    6    01  1.00E+00  0.00E+00  0.00E+00  0.00E+00  0.00E+00  0.00E+00
FR 0 20 0 0 140 0.5
EN   
