CM 2el160H,  160 m 2 element V array.
CE
GW	1	113	0	0.3048	42.6720009	0	32.6136017	30.4799995	1.0265e-3
GW	2	144	0	32.6136017	30.4799995	0	0		0.91439998	1.0265e-3
GW	3	113	0	-0.3048	42.6720009	0	-32.613602	30.4799995	1.0265e-3
GW	4	144	0	-32.613602	30.4799995	0	0		0.91439998	1.0265e-3
GW	5	3	0	0		0.91439998	0	0		0		1.0265e-3
GE	1
EK
sy Cap=5.8pF	' Max F/B
'sy Cap=1pF		' Max Gain
LD	0	4	143	143	0	0	Cap
EX	0	2	143	0	1	0
GN	3	0	0	0	13	5.e-3
FR	0	1	0	0	1.9	0
EN
