CM 2-element full-size Quad, 10 meters, #14 copper
CM L. B. Cebik, W4RNL
CE 
GW 1 21 -4.334 0 -4.334 4.334 0 -4.334 2.6706e-3
GW 2 21 4.334 0 -4.334 4.334 0 4.334 2.6706e-3
GW 3 21 4.334 0 4.334 -4.334 0 4.334 2.6706e-3
GW 4 21 -4.334 0 4.334 -4.334 0 -4.334 2.6706e-3
GW 5 21 -4.58 -4.31 -4.58 4.58 -4.31 -4.58 2.6706e-3
GW 6 21 4.58 -4.31 -4.58 4.58 -4.31 4.58 2.6706e-3
GW 7 21 4.58 -4.31 4.58 -4.58 -4.31 4.58 2.6706e-3
GW 8 21 -4.58 -4.31 4.58 -4.58 -4.31 -4.58 2.6706e-3
GS 0 0 .3048
GE 0
EX 0 1 11 0 1 0
LD 5 0 0 0 5.8001e7
FR 0 1 0 0 28.5 1
EN

