CM 2 element Yagi, 1" al, 20 meters
CM L. B. Cebik, W4RNL
CE 
GW 1 21 -16.1 0 70 16.1 0 70 .0415
GW 2 21 -17.5 -8.67 70 17.5 -8.67 70 .0415
GS 0 0 .3048
GE 1
GN 0 0 0 0 13 .005
EX 0 1 11 0 1 0
LD 5 0 0 0 2.4938E7
FR 0 1 0 0 14.175 1
EN

