CM 4Q15A95, converted with 4nec2 on 31-mei-05 20:57
CE
GW	1	9	0.1109073	0.5603736	0.1109073	-0.110907	0.5603736	0.1109073	5.8372e-5
GW	2	9	-0.110907	0.5603736	0.1109073	-0.110907	0.5603736	-0.110907	5.8372e-5
GW	3	9	-0.110907	0.5603736	-0.110907	0.1109073	0.5603736	-0.110907	5.8372e-5
GW	4	9	0.1109073	0.5603736	-0.110907	0.1109073	0.5603736	0.1109073	5.8372e-5
GW	5	9	0.1109073	0.2801868	0.1109073	-0.110907	0.2801868	0.1109073	5.8372e-5
GW	6	9	-0.110907	0.2801868	0.1109073	-0.110907	0.2801868	-0.110907	5.8372e-5
GW	7	9	-0.110907	0.2801868	-0.110907	0.1109073	0.2801868	-0.110907	5.8372e-5
GW	8	9	0.1109073	0.2801868	-0.110907	0.1109073	0.2801868	0.1109073	5.8372e-5
GW	9	9	0.13425617	0		0.13425617	-0.1342562	0		0.13425617	5.83723e-5
GW	10	9	-0.1342562	0		0.13425617	-0.1342562	0		-0.1342562	5.83723e-5
GW	11	9	-0.1342562	0		-0.1342562	0.13425617	0		-0.1342562	5.83723e-5
GW	12	9	0.13425617	0		-0.1342562	0.13425617	0		0.13425617	5.83723e-5
GW	13	9	0.1342562	-0.140093	0.1342562	-0.134256	-0.140093	0.1342562	5.8372e-5
GW	14	9	-0.134256	-0.140093	0.1342562	-0.134256	-0.140093	-0.134256	5.8372e-5
GW	15	9	-0.134256	-0.140093	-0.134256	0.1342562	-0.140093	-0.134256	5.8372e-5
GW	16	9	0.1342562	-0.140093	-0.134256	0.1342562	-0.140093	0.1342562	5.8372e-5

'GW	17	9	0.5108973	0.5603736	0.1109073	0.2890828	0.5603736	0.1109073	5.8372e-5
'GW	18	9	0.2890828	0.5603736	0.1109073	0.2890827	0.5603736	-0.110907	5.8372e-5
'GW	19	9	0.2890827	0.5603736	-0.110907	0.5108973	0.5603736	-0.110907	5.8372e-5
'GW	20	9	0.5108973	0.5603736	-0.110907	0.5108973	0.5603736	0.1109073	5.8372e-5
'GW	21	9	0.5108973	0.2801868	0.1109073	0.2890827	0.2801868	0.1109073	5.8372e-5
'GW	22	9	0.2890827	0.2801868	0.1109073	0.2890827	0.2801868	-0.110907	5.8372e-5
'GW	23	9	0.2890827	0.2801868	-0.110907	0.5108973	0.2801868	-0.110907	5.8372e-5
'GW	24	9	0.5108973	0.2801868	-0.110907	0.5108973	0.2801868	0.1109073	5.8372e-5
'GW	25	9	0.53424617	0		0.13425617	0.26573383	0		0.13425617	5.83723e-5
'GW	26	9	0.26573383	0		0.13425617	0.26573383	0		-0.1342562	5.83723e-5
'GW	27	9	0.26573383	0		-0.1342562	0.53424617	0		-0.1342562	5.83723e-5
'GW	28	9	0.53424617	0		-0.1342562	0.53424617	0		0.13425617	5.83723e-5
'GW	29	9	0.5342462	-0.140093	0.1342562	0.2657338	-0.140093	0.1342562	5.8372e-5
'GW	30	9	0.2657338	-0.140093	0.1342562	0.2657338	-0.140093	-0.134256	5.8372e-5
'GW	31	9	0.2657338	-0.140093	-0.134256	0.5342462	-0.140093	-0.134256	5.8372e-5
'GW	32	9	0.5342462	-0.140093	-0.134256	0.5342462	-0.140093	0.1342562	5.8372e-5

SY dist=0.4
GM	16	1	0	0	0	dist	0	0	0

SY freq=35.0	
GS	0	0	299.8/freq		' All in WL.
GE	0
LD	5	0	0	0	57471265.5	0
EX	0	11	5	0	1	0
EX	0	27	5	0	1	0
GN	-1
FR	0	1	0	0	35	0
EN
