CM 3-element Yagi, 20 meters, 1" Al
CM L. B. Cebik, W4RNL
CE 
sy len=16.501	'16.617
GW 1 41 -len   -.817   70 len   -.817   70 .0415
GW 2 41 -17.28 -11.272 70 17.28 -11.272 70 .0415
GW 3 41 -15.525 11.272 70 15.525 11.272 70 .0415
GS 0 0 .3048
GE 1
GN 0 0 0 0 13 .005
EX 0 1 21 0 1 0
LD 5 0 0 0 2.4938E7
FR 0 1 0 0 14.175 1
EN

