CM 7-element wire Yagi, 10 meters
CM L. B. Cebik, W4RNL
CE 
GW 1 13 -2.5816 0 6.096 2.58166 0 6.096 .000512
GW 2 13 -2.7495 -1.7907 6.096 2.74954 -1.7907 6.096 .000512
GW 3 13 -2.4384 1.4731 6.096 2.4384 1.4731 6.096 .000512
GW 4 13 -2.4193 1.3207 6.096 2.4192 1.3207 6.096 .000512
GW 5 13 -2.4003 5.46101 6.096 2.4003 5.4611 6.096 .000512
GW 6 13 -2.3875 7.8739 6.096 2.3875 7.8739 6.096 .000512
GW 7 13 -2.3685 10.1346 6.096 2.36854 10.1346 6.096 .000512
GS 0 0 1
GE 1
'
GN 2 0 0 0 15 .002 0 0 0 0
'
EX 0 1 7 0 1 0
'
LD 5 0 0 0 5.8001E7
'
sy fr = 28.5
FR 0 1 0 0 fr 0
'
EN