CM 8X6Q, converted with 4nec2 on 31-mei-05 21:00
CE
SY freq=36	' Design frequency.
GW	1	3	1.0800565	1.152769	2.0400353	0.839896	1.152769	2.0400353	9.7729e-5
GW	2	3	0.839896	1.152769	2.0400353	0.8398959	1.1527686	1.7998719	9.7729e-5
GW	3	3	0.8398959	1.1527686	1.7998719	1.0800561	1.1527686	1.7998719	9.7729e-5
GW	4	3	1.0800561	1.1527686	1.7998719	1.0800565	1.152769	2.0400353	9.7729e-5
GW	5	3	1.0800561	0.8645764	2.040032	0.8398959	0.8645764	2.040032	9.7729e-5
GW	6	3	0.8398959	0.8645764	2.040032	0.8398959	0.8645764	1.7998719	9.7729e-5
GW	7	3	0.8398959	0.8645764	1.7998719	1.0800561	0.8645764	1.7998719	9.7729e-5
GW	8	3	1.0800561	0.8645764	1.7998719	1.0800561	0.8645764	2.040032	9.7729e-5
GW	9	3	1.0800561	0.5763843	2.040032	0.8398959	0.5763843	2.040032	9.7729e-5
GW	10	3	0.8398959	0.5763843	2.040032	0.8398959	0.5763843	1.7998719	9.7729e-5
GW	11	3	0.8398959	0.5763843	1.7998719	1.0800561	0.5763843	1.7998719	9.7729e-5
GW	12	3	1.0800561	0.5763843	1.7998719	1.0800561	0.5763843	2.040032	9.7729e-5
GW	13	3	1.0800561	0.2881921	2.040032	0.8398959	0.2881921	2.040032	9.7729e-5
GW	14	3	0.8398959	0.2881921	2.040032	0.8398959	0.2881921	1.7998719	9.7729e-5
GW	15	3	0.8398959	0.2881921	1.7998719	1.0800561	0.2881921	1.7998719	9.7729e-5
GW	16	3	1.0800561	0.2881921	1.7998719	1.0800561	0.2881921	2.040032	9.7729e-5
GW	17	3	1.0920641	0	2.0520401	0.82788795	0	2.0520401	9.77288e-5
GW	18	3	0.82788795	0	2.0520401	0.82788795	0	1.78786389	9.77288e-5
GW	19	3	0.82788795	0	1.78786389	1.0920641	0	1.78786389	9.77288e-5
GW	20	3	1.0920641	0	1.78786389	1.0920641	0	2.0520401	9.77288e-5
GW	21	3	1.0920641	-0.144096	2.0520401	0.827888	-0.144096	2.0520401	9.7729e-5
GW	22	3	0.827888	-0.144096	2.0520401	0.827888	-0.144096	1.7878639	9.7729e-5
GW	23	3	0.827888	-0.144096	1.7878639	1.0920641	-0.144096	1.7878639	9.7729e-5
GW	24	3	1.0920641	-0.144096	1.7878639	1.0920641	-0.144096	2.0520401	9.7729e-5
GW	25	3	1.0800561	1.1527686	1.0800561	0.8398959	1.1527686	1.0800561	9.7729e-5
GW	26	3	0.8398959	1.1527686	1.0800561	0.8398959	1.1527686	0.8398959	9.7729e-5
GW	27	3	0.8398959	1.1527686	0.8398959	1.0800561	1.1527686	0.8398959	9.7729e-5
GW	28	3	1.0800561	1.1527686	0.8398959	1.0800561	1.1527686	1.0800561	9.7729e-5
GW	29	3	1.0800561	0.8645764	1.0800561	0.8398959	0.8645764	1.0800561	9.7729e-5
GW	30	3	0.8398959	0.8645764	1.0800561	0.8398959	0.8645764	0.8398959	9.7729e-5
GW	31	3	0.8398959	0.8645764	0.8398959	1.0800561	0.8645764	0.8398959	9.7729e-5
GW	32	3	1.0800561	0.8645764	0.8398959	1.0800561	0.8645764	1.0800561	9.7729e-5
GW	33	3	1.0800561	0.5763843	1.0800561	0.8398959	0.5763843	1.0800561	9.7729e-5
GW	34	3	0.8398959	0.5763843	1.0800561	0.8398959	0.5763843	0.8398959	9.7729e-5
GW	35	3	0.8398959	0.5763843	0.8398959	1.0800561	0.5763843	0.8398959	9.7729e-5
GW	36	3	1.0800561	0.5763843	0.8398959	1.0800561	0.5763843	1.0800561	9.7729e-5
GW	37	3	1.0800561	0.2881921	1.0800561	0.8398959	0.2881921	1.0800561	9.7729e-5
GW	38	3	0.8398959	0.2881921	1.0800561	0.8398959	0.2881921	0.8398959	9.7729e-5
GW	39	3	0.8398959	0.2881921	0.8398959	1.0800561	0.2881921	0.8398959	9.7729e-5
GW	40	3	1.0800561	0.2881921	0.8398959	1.0800561	0.2881921	1.0800561	9.7729e-5
GW	41	3	1.0920641	0	1.0920641	0.82788795	0	1.0920641	9.77288e-5
GW	42	3	0.82788795	0	1.0920641	0.82788795	0	0.82788795	9.77288e-5
GW	43	3	0.82788795	0	0.82788795	1.0920641	0	0.82788795	9.77288e-5
GW	44	3	1.0920641	0	0.82788795	1.0920641	0	1.0920641	9.77288e-5
GW	45	3	1.0920641	-0.144096	1.0920641	0.827888	-0.144096	1.0920641	9.7729e-5
GW	46	3	0.827888	-0.144096	1.0920641	0.827888	-0.144096	0.827888	9.7729e-5
GW	47	3	0.827888	-0.144096	0.827888	1.0920641	-0.144096	0.827888	9.7729e-5
GW	48	3	1.0920641	-0.144096	0.827888	1.0920641	-0.144096	1.0920641	9.7729e-5
GW	49	3	0.1200801	1.1527686	2.0400353	-0.12008	1.1527686	2.0400353	9.7729e-5
GW	50	3	-0.12008	1.1527686	2.0400353	-0.12008	1.1527686	1.7998719	9.7729e-5
GW	51	3	-0.12008	1.1527686	1.7998719	0.1200801	1.1527686	1.7998719	9.7729e-5
GW	52	3	0.1200801	1.1527686	1.7998719	0.1200801	1.1527686	2.0400353	9.7729e-5
GW	53	3	0.1200801	0.8645764	2.040032	-0.12008	0.8645764	2.040032	9.7729e-5
GW	54	3	-0.12008	0.8645764	2.040032	-0.12008	0.8645764	1.7998719	9.7729e-5
GW	55	3	-0.12008	0.8645764	1.7998719	0.1200801	0.8645764	1.7998719	9.7729e-5
GW	56	3	0.1200801	0.8645764	1.7998719	0.1200801	0.8645764	2.040032	9.7729e-5
GW	57	3	0.1200801	0.5763843	2.040032	-0.12008	0.5763843	2.040032	9.7729e-5
GW	58	3	-0.12008	0.5763843	2.040032	-0.12008	0.5763843	1.7998719	9.7729e-5
GW	59	3	-0.12008	0.5763843	1.7998719	0.1200801	0.5763843	1.7998719	9.7729e-5
GW	60	3	0.1200801	0.5763843	1.7998719	0.1200801	0.5763843	2.040032	9.7729e-5
GW	61	3	0.1200801	0.2881921	2.040032	-0.12008	0.2881921	2.040032	9.7729e-5
GW	62	3	-0.12008	0.2881921	2.040032	-0.12008	0.2881921	1.7998719	9.7729e-5
GW	63	3	-0.12008	0.2881921	1.7998719	0.1200801	0.2881921	1.7998719	9.7729e-5
GW	64	3	0.1200801	0.2881921	1.7998719	0.1200801	0.2881921	2.040032	9.7729e-5
GW	65	3	0.13208806	0	2.0520401	-0.1320881	0	2.0520401	9.77288e-5
GW	66	3	-0.1320881	0	2.0520401	-0.1320881	0	1.78786389	9.77288e-5
GW	67	3	-0.1320881	0	1.78786389	0.13208806	0	1.78786389	9.77288e-5
GW	68	3	0.13208806	0	1.78786389	0.13208806	0	2.0520401	9.77288e-5
GW	69	3	0.1320881	-0.144096	2.0520401	-0.132088	-0.144096	2.0520401	9.7729e-5
GW	70	3	-0.132088	-0.144096	2.0520401	-0.132088	-0.144096	1.7878639	9.7729e-5
GW	71	3	-0.132088	-0.144096	1.7878639	0.1320881	-0.144096	1.7878639	9.7729e-5
GW	72	3	0.1320881	-0.144096	1.7878639	0.1320881	-0.144096	2.0520401	9.7729e-5
GW	73	3	0.1200801	1.1527686	1.0800561	-0.12008	1.1527686	1.0800561	9.7729e-5
GW	74	3	-0.12008	1.1527686	1.0800561	-0.12008	1.1527686	0.8398959	9.7729e-5
GW	75	3	-0.12008	1.1527686	0.8398959	0.1200801	1.1527686	0.8398959	9.7729e-5
GW	76	3	0.1200801	1.1527686	0.8398959	0.1200801	1.1527686	1.0800561	9.7729e-5
GW	77	3	0.1200801	0.8645764	1.0800561	-0.12008	0.8645764	1.0800561	9.7729e-5
GW	78	3	-0.12008	0.8645764	1.0800561	-0.12008	0.8645764	0.8398959	9.7729e-5
GW	79	3	-0.12008	0.8645764	0.8398959	0.1200801	0.8645764	0.8398959	9.7729e-5
GW	80	3	0.1200801	0.8645764	0.8398959	0.1200801	0.8645764	1.0800561	9.7729e-5
GW	81	3	0.1200801	0.5763843	1.0800561	-0.12008	0.5763843	1.0800561	9.7729e-5
GW	82	3	-0.12008	0.5763843	1.0800561	-0.12008	0.5763843	0.8398959	9.7729e-5
GW	83	3	-0.12008	0.5763843	0.8398959	0.1200801	0.5763843	0.8398959	9.7729e-5
GW	84	3	0.1200801	0.5763843	0.8398959	0.1200801	0.5763843	1.0800561	9.7729e-5
GW	85	3	0.1200801	0.2881921	1.0800561	-0.12008	0.2881921	1.0800561	9.7729e-5
GW	86	3	-0.12008	0.2881921	1.0800561	-0.12008	0.2881921	0.8398959	9.7729e-5
GW	87	3	-0.12008	0.2881921	0.8398959	0.1200801	0.2881921	0.8398959	9.7729e-5
GW	88	3	0.1200801	0.2881921	0.8398959	0.1200801	0.2881921	1.0800561	9.7729e-5
GW	89	3	0.13208806	0	1.0920641	-0.1320881	0	1.0920641	9.77288e-5
GW	90	3	-0.1320881	0	1.0920641	-0.1320881	0	0.82788795	9.77288e-5
GW	91	3	-0.1320881	0	0.82788795	0.13208806	0	0.82788795	9.77288e-5
GW	92	3	0.13208806	0	0.82788795	0.13208806	0	1.0920641	9.77288e-5
GW	93	3	0.1320881	-0.144096	1.0920641	-0.132088	-0.144096	1.0920641	9.7729e-5
GW	94	3	-0.132088	-0.144096	1.0920641	-0.132088	-0.144096	0.827888	9.7729e-5
GW	95	3	-0.132088	-0.144096	0.827888	0.1320881	-0.144096	0.827888	9.7729e-5
GW	96	3	0.1320881	-0.144096	0.827888	0.1320881	-0.144096	1.0920641	9.7729e-5
GW	97	3	-0.892497	1.1527691	2.0400353	-1.132658	1.1527691	2.0400353	9.7729e-5
GW	98	3	-1.132658	1.1527691	2.0400353	-1.132657	1.1527686	1.7998719	9.7729e-5
GW	99	3	-1.132657	1.1527686	1.7998719	-0.892497	1.1527686	1.7998719	9.7729e-5
GW	100	3	-0.892497	1.1527686	1.7998719	-0.892497	1.1527691	2.0400353	9.7729e-5
GW	101	3	-0.892497	0.8645764	2.040032	-1.132657	0.8645764	2.040032	9.7729e-5
GW	102	3	-1.132657	0.8645764	2.040032	-1.132657	0.8645764	1.7998719	9.7729e-5
GW	103	3	-1.132657	0.8645764	1.7998719	-0.892497	0.8645764	1.7998719	9.7729e-5
GW	104	3	-0.892497	0.8645764	1.7998719	-0.892497	0.8645764	2.040032	9.7729e-5
GW	105	3	-0.892497	0.5763843	2.040032	-1.132657	0.5763843	2.040032	9.7729e-5
GW	106	3	-1.132657	0.5763843	2.040032	-1.132657	0.5763843	1.7998719	9.7729e-5
GW	107	3	-1.132657	0.5763843	1.7998719	-0.892497	0.5763843	1.7998719	9.7729e-5
GW	108	3	-0.892497	0.5763843	1.7998719	-0.892497	0.5763843	2.040032	9.7729e-5
GW	109	3	-0.892497	0.2881921	2.040032	-1.132657	0.2881921	2.040032	9.7729e-5
GW	110	3	-1.132657	0.2881921	2.040032	-1.132657	0.2881921	1.7998719	9.7729e-5
GW	111	3	-1.132657	0.2881921	1.7998719	-0.892497	0.2881921	1.7998719	9.7729e-5
GW	112	3	-0.892497	0.2881921	1.7998719	-0.892497	0.2881921	2.040032	9.7729e-5
GW	113	3	-0.8804893	0	2.0520401	-1.1446655	0	2.0520401	9.77288e-5
GW	114	3	-1.1446655	0	2.0520401	-1.1446655	0	1.78786389	9.77288e-5
GW	115	3	-1.1446655	0	1.78786389	-0.8804893	0	1.78786389	9.77288e-5
GW	116	3	-0.8804893	0	1.78786389	-0.8804893	0	2.0520401	9.77288e-5
GW	117	3	-0.880489	-0.144096	2.0520401	-1.144666	-0.144096	2.0520401	9.7729e-5
GW	118	3	-1.144666	-0.144096	2.0520401	-1.144666	-0.144096	1.7878639	9.7729e-5
GW	119	3	-1.144666	-0.144096	1.7878639	-0.880489	-0.144096	1.7878639	9.7729e-5
GW	120	3	-0.880489	-0.144096	1.7878639	-0.880489	-0.144096	2.0520401	9.7729e-5
GW	121	3	-0.892497	1.1527686	1.0800561	-1.132657	1.1527686	1.0800561	9.7729e-5
GW	122	3	-1.132657	1.1527686	1.0800561	-1.132657	1.1527686	0.8398959	9.7729e-5
GW	123	3	-1.132657	1.1527686	0.8398959	-0.892497	1.1527686	0.8398959	9.7729e-5
GW	124	3	-0.892497	1.1527686	0.8398959	-0.892497	1.1527686	1.0800561	9.7729e-5
GW	125	3	-0.892497	0.8645764	1.0800561	-1.132657	0.8645764	1.0800561	9.7729e-5
GW	126	3	-1.132657	0.8645764	1.0800561	-1.132657	0.8645764	0.8398959	9.7729e-5
GW	127	3	-1.132657	0.8645764	0.8398959	-0.892497	0.8645764	0.8398959	9.7729e-5
GW	128	3	-0.892497	0.8645764	0.8398959	-0.892497	0.8645764	1.0800561	9.7729e-5
GW	129	3	-0.892497	0.5763843	1.0800561	-1.132657	0.5763843	1.0800561	9.7729e-5
GW	130	3	-1.132657	0.5763843	1.0800561	-1.132657	0.5763843	0.8398959	9.7729e-5
GW	131	3	-1.132657	0.5763843	0.8398959	-0.892497	0.5763843	0.8398959	9.7729e-5
GW	132	3	-0.892497	0.5763843	0.8398959	-0.892497	0.5763843	1.0800561	9.7729e-5
GW	133	3	-0.892497	0.2881921	1.0800561	-1.132657	0.2881921	1.0800561	9.7729e-5
GW	134	3	-1.132657	0.2881921	1.0800561	-1.132657	0.2881921	0.8398959	9.7729e-5
GW	135	3	-1.132657	0.2881921	0.8398959	-0.892497	0.2881921	0.8398959	9.7729e-5
GW	136	3	-0.892497	0.2881921	0.8398959	-0.892497	0.2881921	1.0800561	9.7729e-5
GW	137	3	-0.8804893	0	1.0920641	-1.1446655	0	1.0920641	9.77288e-5
GW	138	3	-1.1446655	0	1.0920641	-1.1446655	0	0.82788795	9.77288e-5
GW	139	3	-1.1446655	0	0.82788795	-0.8804893	0	0.82788795	9.77288e-5
GW	140	3	-0.8804893	0	0.82788795	-0.8804893	0	1.0920641	9.77288e-5
GW	141	3	-0.880489	-0.144096	1.0920641	-1.144666	-0.144096	1.0920641	9.7729e-5
GW	142	3	-1.144666	-0.144096	1.0920641	-1.144666	-0.144096	0.827888	9.7729e-5
GW	143	3	-1.144666	-0.144096	0.827888	-0.880489	-0.144096	0.827888	9.7729e-5
GW	144	3	-0.880489	-0.144096	0.827888	-0.880489	-0.144096	1.0920641	9.7729e-5
GW	145	3	-1.852473	1.1527686	2.0400353	-2.092633	1.1527686	2.0400353	9.7729e-5
GW	146	3	-2.092633	1.1527686	2.0400353	-2.092633	1.1527686	1.7998719	9.7729e-5
GW	147	3	-2.092633	1.1527686	1.7998719	-1.852473	1.1527686	1.7998719	9.7729e-5
GW	148	3	-1.852473	1.1527686	1.7998719	-1.852473	1.1527686	2.0400353	9.7729e-5
GW	149	3	-1.852473	0.8645764	2.040032	-2.092633	0.8645764	2.040032	9.7729e-5
GW	150	3	-2.092633	0.8645764	2.040032	-2.092633	0.8645764	1.7998719	9.7729e-5
GW	151	3	-2.092633	0.8645764	1.7998719	-1.852473	0.8645764	1.7998719	9.7729e-5
GW	152	3	-1.852473	0.8645764	1.7998719	-1.852473	0.8645764	2.040032	9.7729e-5
GW	153	3	-1.852473	0.5763843	2.040032	-2.092633	0.5763843	2.040032	9.7729e-5
GW	154	3	-2.092633	0.5763843	2.040032	-2.092633	0.5763843	1.7998719	9.7729e-5
GW	155	3	-2.092633	0.5763843	1.7998719	-1.852473	0.5763843	1.7998719	9.7729e-5
GW	156	3	-1.852473	0.5763843	1.7998719	-1.852473	0.5763843	2.040032	9.7729e-5
GW	157	3	-1.852473	0.2881921	2.040032	-2.092633	0.2881921	2.040032	9.7729e-5
GW	158	3	-2.092633	0.2881921	2.040032	-2.092633	0.2881921	1.7998719	9.7729e-5
GW	159	3	-2.092633	0.2881921	1.7998719	-1.852473	0.2881921	1.7998719	9.7729e-5
GW	160	3	-1.852473	0.2881921	1.7998719	-1.852473	0.2881921	2.040032	9.7729e-5
GW	161	3	-1.8404653	0	2.0520401	-2.1046415	0	2.0520401	9.77288e-5
GW	162	3	-2.1046415	0	2.0520401	-2.1046415	0	1.78786389	9.77288e-5
GW	163	3	-2.1046415	0	1.78786389	-1.8404653	0	1.78786389	9.77288e-5
GW	164	3	-1.8404653	0	1.78786389	-1.8404653	0	2.0520401	9.77288e-5
GW	165	3	-1.840465	-0.144096	2.0520401	-2.104642	-0.144096	2.0520401	9.7729e-5
GW	166	3	-2.104642	-0.144096	2.0520401	-2.104642	-0.144096	1.7878639	9.7729e-5
GW	167	3	-2.104642	-0.144096	1.7878639	-1.840465	-0.144096	1.7878639	9.7729e-5
GW	168	3	-1.840465	-0.144096	1.7878639	-1.840465	-0.144096	2.0520401	9.7729e-5
GW	169	3	-1.852473	1.1527686	1.0800561	-2.092633	1.1527686	1.0800561	9.7729e-5
GW	170	3	-2.092633	1.1527686	1.0800561	-2.092633	1.1527686	0.8398959	9.7729e-5
GW	171	3	-2.092633	1.1527686	0.8398959	-1.852473	1.1527686	0.8398959	9.7729e-5
GW	172	3	-1.852473	1.1527686	0.8398959	-1.852473	1.1527686	1.0800561	9.7729e-5
GW	173	3	-1.852473	0.8645764	1.0800561	-2.092633	0.8645764	1.0800561	9.7729e-5
GW	174	3	-2.092633	0.8645764	1.0800561	-2.092633	0.8645764	0.8398959	9.7729e-5
GW	175	3	-2.092633	0.8645764	0.8398959	-1.852473	0.8645764	0.8398959	9.7729e-5
GW	176	3	-1.852473	0.8645764	0.8398959	-1.852473	0.8645764	1.0800561	9.7729e-5
GW	177	3	-1.852473	0.5763843	1.0800561	-2.092633	0.5763843	1.0800561	9.7729e-5
GW	178	3	-2.092633	0.5763843	1.0800561	-2.092633	0.5763843	0.8398959	9.7729e-5
GW	179	3	-2.092633	0.5763843	0.8398959	-1.852473	0.5763843	0.8398959	9.7729e-5
GW	180	3	-1.852473	0.5763843	0.8398959	-1.852473	0.5763843	1.0800561	9.7729e-5
GW	181	3	-1.852473	0.2881921	1.0800561	-2.092633	0.2881921	1.0800561	9.7729e-5
GW	182	3	-2.092633	0.2881921	1.0800561	-2.092633	0.2881921	0.8398959	9.7729e-5
GW	183	3	-2.092633	0.2881921	0.8398959	-1.852473	0.2881921	0.8398959	9.7729e-5
GW	184	3	-1.852473	0.2881921	0.8398959	-1.852473	0.2881921	1.0800561	9.7729e-5
GW	185	3	-1.8404653	0	1.0920641	-2.1046415	0	1.0920641	9.77288e-5
GW	186	3	-2.1046415	0	1.0920641	-2.1046415	0	0.82788795	9.77288e-5
GW	187	3	-2.1046415	0	0.82788795	-1.8404653	0	0.82788795	9.77288e-5
GW	188	3	-1.8404653	0	0.82788795	-1.8404653	0	1.0920641	9.77288e-5
GW	189	3	-1.840465	-0.144096	1.0920641	-2.104642	-0.144096	1.0920641	9.7729e-5
GW	190	3	-2.104642	-0.144096	1.0920641	-2.104642	-0.144096	0.827888	9.7729e-5
GW	191	3	-2.104642	-0.144096	0.827888	-1.840465	-0.144096	0.827888	9.7729e-5
GW	192	3	-1.840465	-0.144096	0.827888	-1.840465	-0.144096	1.0920641	9.7729e-5
GS	0	0	299.8/freq		' All in WL.
GE	0
LD	5	0	0	0	57471265.5	0
EX	0	19	2	0	3	0
EX	0	43	2	0	3	0
EX	0	67	2	0	3	0
EX	0	91	2	0	3	0
EX	0	115	2	0	3	0
EX	0	139	2	0	3	0
EX	0	163	2	0	3	0
EX	0	187	2	0	3	0
GN	-1
FR	0	3	0	0	36	0
EN
