CM .22 wl fan Yagi, 45-deg slope
CM 0.22 wl hor. & vert.
CM 10 meters
CE
GW	1	9	-1.1742	-1.8547	0	-1.1742	-1.8547	1.17423	8.14e-4
GW	2	27	-1.1742	-1.8547	1.17423	-0.0639	-1.8547	0	8.14e-4
GW	3	9	-1.1742	-1.8547	0	-1.1742	-1.8547	-1.1742	8.14e-4
GW	4	27	-1.1742	-1.8547	-1.1742	-0.0639	-1.8547	0	8.14e-4
GW	5	3	-0.0639	-1.8547	0	0.06399	-1.8547	0	8.14e-4
GW	6	27	0.06399	-1.8547	0	1.17423	-1.8547	1.17423	8.14e-4
GW	7	9	1.17423	-1.8547	1.17423	1.17423	-1.8547	0	8.14e-4
GW	8	27	0.06399	-1.8547	0	1.17423	-1.8547	-1.1742	8.14e-4
GW	9	9	1.17423	-1.8547	-1.1742	1.17423	-1.8547	0	8.14e-4
GW	10	9	-1.0972	0	0	-1.0972	0	1.09728	8.14e-4
GW	11	27	-1.0972	0	1.09728	-0.0618	0	0	8.14e-4
GW	12	9	-1.0972	0	0	-1.0972	0	-1.0972	8.14e-4
GW	13	27	-1.0972	0	-1.0972	-0.0618	0	0	8.14e-4
GW	14	3	-0.0618	0	0	0.06182	0	0	8.14e-4
GW	15	27	0.06182	0	0	1.09728	0	1.09728	8.14e-4
GW	16	9	1.09728	0	1.09728	1.09728	0	0	8.14e-4
GW	17	27	0.06182	0	0	1.09728	0	-1.0972	8.14e-4
GW	18	9	1.09728	0	-1.0972	1.09728	0	0	8.14e-4
GE	0
LD	5	0	0	0	57471000
EX	0	14	2	0	1	0
GN	-1
FR	0	1	0	0	28.5	0
EN
