CM Moxon Rectangle:  20 meters Free Space #14 copper wire
CM L. B. Cebik, W4RNL
CM
CE See also the calculatable Moxon in the Equation folder.

GW	1	7	-3.81	0.435864	10.668	-3.81	1.655064	10.668	8.13999e-4
GW	2	45	-3.81	1.655064	10.668	3.81	1.655064	10.668	8.13999e-4
GW	3	7	3.81	1.655064	10.668	3.81	0.435864	10.668	8.13999e-4
GW	4	9	-3.81	0.216408	10.668	-3.81	-1.261872	10.668	8.13999e-4
GW	5	45	-3.81	-1.261872	10.668	3.81	-1.261872	10.668	8.13999e-4
GW	6	9	3.81	-1.261872	10.668	3.81	0.216408	10.668	8.13999e-4
GE	0
LD	5	0	0	0	58001000
EX	0	2	23	0	1	0
GN	0	0	0	0	13	5.e-3
FR	0	1	0	0	14.175	0
EN
