CM VE3RGW Ninja Beam 15 m.
CE
GW 1 10 0  -9.76005 23.5976 0       0  30      2.67016e-3
GW 2 10 0  0        30      0  9.76005 23.5976 2.67016e-3
GW 3 10 5  -9.26765 23.5107 5  0       30      2.67016e-3
GW 4 10 5  0        30      5  9.26765 23.5107 2.67016e-3
GW 5 10 -5 -9.26765 23.5107 -5 0       30      2.67016e-3
GW 6 10 -5 0        30      -5 9.26765 23.5107 2.67016e-3
GS 0 0 0.3048		' All in ft.
GE 0
LD 0 5 10 10 0.7 7.5e-7
LD 0 6 1 1 0.7 7.5e-7
EX 6 1 10 0 1 0
EX 6 2 1 0 1 0
GN 2 0 0 0 13 5.e-3
FR 0 1 0 0 21 0
EN
