CM 6M 3 el wide-band Yagi
CE
GW	1	31	-1.4835	-1.0334	5.82448	1.48357	-1.0334	5.82448	6.35e-3
GW	2	31	-1.3729	0	5.82448	1.37291	0	5.82448	6.35e-3
GW	3	31	-1.2206	0.83206	5.82448	1.22064	0.83206	5.82448	6.35e-3
GE	0
LD	5	0	0	0	25000000
EX	0	2	16	0	1	0
GN	-1
FR	0	1	0	0	52	0
EN
