CM 2el 5/4 10m 41.67' 4.39'; orig. ZL1LE
CM L. B. Cebik, W4RNL      
CE
GW	1	31	-6.3499	0	10.668	6.34999	0	10.668	1.03e-3
GW	2	31	-6.3499	-1.338	10.668	6.34999	-1.338	10.668	1.03e-3
GE	0
LD	4	2	16	16	10	1150
LD	4	1	16	16	10	905
LD	5	0	0	0	57471000
EX	0	1	16	0	1	0
GN	2	0	0	0	13	5.e-3
FR	0	1	0	0	28.5	0
EN
