CM Inverted V for 80 Mtr with split-voltage source.
CE
GW	1	13	-16.15529	0.0	8.68794	0.0	0.0	20.0	0.00103
GW	3	13	0.0	0.0	20.0	16.15529	0.0	8.68794	0.00103
GE	0

EX	0	1	13	0	1	0
EX	0	3	1	0	1	0

GN	2	0	0	0	14	6.e-3
FR	0	1	0	0	3.68	0
EN
