CM med. loop 40m
CM 1/2 wl double loop, capacity gap
CM 18' per side
CE
GW	1	17	-2.7584	0.0762	1.524	-2.7584	0.0762	7.0104	1.03e-3
GW	2	8	-2.7584	0.0762	7.0104	-0.1524	0	7.0104	1.03e-3
GW	3	8	0.1524	0	7.0104	2.75844	0.0762	7.0104	1.03e-3
GW	4	17	2.75844	0.0762	7.0104	2.75844	0.0762	1.524	1.03e-3
GW	5	17	2.75844	0.0762	1.524	-2.7584	0.0762	1.524	1.03e-3
GW	6	17	-2.7584	-0.0762	1.524	-2.7584	-0.0762	7.0104	1.03e-3
GW	7	8	-2.7584	-0.0762	7.0104	-0.1524	0	7.0104	1.03e-3
GW	8	8	0.1524	0	7.0104	2.75844	-0.0762	7.0104	1.03e-3
GW	9	17	2.75844	-0.0762	7.0104	2.75844	-0.0762	1.524	1.03e-3
GW	10	17	2.75844	-0.0762	1.524	-2.7584	-0.0762	1.524	1.03e-3
GE	0
LD	5	0	0	0	57471000
EX	0	5	9	0	1	0
GN	2	0	0	0	13	5.e-3
FR	0	1	0	0	7.15	0
EN
