CM k7kgp edz 24.95
CE
GW 1 31   -25.25 0 40      25.25 0 40      2.67016e-3
GW 2 1    -0.36  0 34.2672 0.36  0 34.2672 2.67016e-3
GW 9002 1 -0.36  0 33      0.36  0 33      2.67016e-3
GS 0 0 0.3048		' All in ft.
GE 0
EK
TL 1 16 2 1 450 1.84509812
TL 2 1 9002 1 450 0.38667884 0 0 1.e12
LD 5 1 0 0 57471265
LD 5 2 0 0 57471265
EX 6 2 1 0 1 0
GN 2 0 0 0 13 5.e-3
FR 0 1 0 0 24.95 0
EN
