CM Fan dipole with center
CE
GW 1 9   -6   0  0    -6   0  2  2.67016e-3
GW 2 27  -6   0  2    -0.2 0  0  2.67016e-3
GW 3 9   -6   0  0    -6   0  -2 2.67016e-3
GW 4 27  -6   0  -2   -0.2 0  0  2.67016e-3
GW 5 25  -6   0  0    -0.2 0  0  2.67016e-3
GW 6 3   -0.2 0  0    0.2  0  0  2.67016e-3
GW 7 25  0.2  0  0    6    0  0  2.67016e-3
GW 8 27  0.2  0  0    6    0  2  2.67016e-3
GW 9 9   6    0  2    6    0  0  2.67016e-3
GW 10 27 0.2  0  0    6    0  -2 2.67016e-3
GW 11 9  6    0  -2   6    0  0  2.67016e-3
GS 0 0 0.3048		' All in ft.
GE 0
EK
LD 5 1 0 0 57471265.5 0
LD 5 2 0 0 57471265.5 0
LD 5 3 0 0 57471265.5 0
LD 5 4 0 0 57471265.5 0
LD 5 5 0 0 57471265.5 0
LD 5 6 0 0 57471265.5 0
LD 5 7 0 0 57471265.5 0
LD 5 8 0 0 57471265.5 0
LD 5 9 0 0 57471265.5 0
LD 5 10 0 0 57471265.5 0
LD 5 11 0 0 57471265.5 0
EX 6 6 2 0 1 0
GN -1
FR 0 1 0 0 28.5 0
EN
