CM 12' long fan dipole, 10 meters, #14 copper
CM L. B. Cebik, W4RNL
CE
GW	1	9	-1.8288	0	10.668	-1.8288		0	11.2776	8.14e-4
GW	2	27	-1.8288	0	11.2776	-0.06096	0	10.668	8.14e-4
GW	3	9	-1.8288	0	10.668	-1.8288		0	10.0584	8.14e-4
GW	4	27	-1.8288	0	10.0584	-0.06096	0	10.668	8.14e-4
GW	5	3	-0.06096	0	10.668	0.06096	0	10.668	8.14e-4
GW	6	27	0.06096	0	10.668	1.8288		0	11.2776	8.14e-4
GW	7	9	1.8288	0	11.2776	1.8288		0	10.668	8.14e-4
GW	8	27	0.06096	0	10.668	1.8288		0	10.0584	8.14e-4
GW	9	9	1.8288	0	10.0584	1.8288		0	10.668	8.14e-4
GE	0
LD	5	0	0	0	58001000
EX	0	5	2	0	1	0
GN	0	0	0	0	13	5.e-3
FR	0	1	0	0	28.5	0
EN
