CM LOOP80
CE
GW 1 29 0 0 90 0 66 90 3.367e-3
GW 2 29 0 0 90 66 0 90 3.367e-3
GW 3 29 0 66 90 66 66 90 3.367e-3
GW 4 29 66 0 90 66 66 90 3.367e-3
GS 0 0 0.3048		' All in ft.
GE 0
EK
EX 6 2 15 0 1 0
GN 3 0 0 0 20 0.0303
FR 0 1 0 0 3.85 0
EN
