CM All-Band Inverted-L by L.B. Cebik
CE
GW 1 34 0 55 35 0 0 35 0.0033695
GW 2 21 0 0 35 0 0 0.5 0.0033695
GW 3 41 0 0 0.5 67 0 0.5 0.0033695
GW 4 41 0 0 0.5 0 67 0.5 0.0033695
GW 5 41 0 0 0.5 -67 0 0.5 0.0033695
GW 6 41 0 0 0.5 0 -67 0.5 0.0033695
GS 0 0 .30479
GE 1
GN 2 0 0 0 13.0 0.005
EX 0 2 21 0 1 0
LD 5 0 0 0 5.8001E7
FR 0 1 0 0 3.6 1
EN
