CM Folded dipole by L.B. Cebik (amod96.html)
CM TL + LD matching network to 50 ohms
CE

GW 1 99 -2.4892   0      0     2.4892   0      0     .0005119
GW 2 1   2.4892   0      0     2.4892   0      .0762 .0005119
GW 3 99  2.4892   0      .0762 -2.4892  0      .0762 .0005119
GW 4 1  -2.4892   0      .0762 -2.4892  0      0     .0005119

GW 5 1   0        -.0254 -1    0        .0254  -1    .0005119
GW 6 1   0        .0254  -1    .0254    .0254  -1    .0005119
GW 7 1   .0254    -.0254 -1    0        -.0254 -1    .0005119
GW 8 1   .0254    -.0254 -1    .0254    .0254  -1    .0005119
GW 9 1   .0508    -.0254 -1    .0254    -.0254 -1    .0005119
GW 10 1  .0254    .0254  -1    .0508    .0254  -1    .0005119
GW 11 1  .0508    -.0254 -1    .0508    .0254  -1    .0005119

GE 0
TL 1 50 5 1 290 .001
LD 0 9 1 1 0 2.6e-07 0
LD 0 10 1 1 0 2.6e-07 0
LD 0 8 1 1 0 0 4.19e-11
FR 0 1 0 0 28.5 1
GN -1
EX 0 11 1 0 1 0
EN
