CM MagLoop 20m, 50 Ohm feed
CE
GW 1 1  .08  .03  17.0  .08 -.03  17.0  .005
GW 2 1  .08 -.03  17.0  .11 -.06  17.0  .005
GW 3 1  .11 -.06  17.0  .17 -.06  17.0  .005
GW 4 1 .17 -.06  17.0  .2 -.03  17.0  .005
GW 5 1  .2 -.03  17.0  .2  .03  17.0  .005
GW 6 1  .2  .03  17.0  .17  .06  17.0  .005
GW 7 1  .17  .06  17.0  .11  .06  17.0  .005
GW 8 1  .11  .06  17.0  .08  .03  17.0  .005

GW 9 5 0.0  .15  17.0 0.0 -.15  17.0  .01
GW 10 6 0.0 -.15  17.0  .3 -.45  17.0  .01
GW 11 4  .3 -.45  17.0  .6 -.45  17.0  .01
GW 12 6  .6 -.45  17.0  .9 -.15  17.0  .01
GW 13 5  .9 -.15  17.0  .9  .15  17.0  .01
GW 14 6  .9  .15  17.0  .6  .45  17.0  .01
GW 15 4  .6  .45  17.0  .3  .45  17.0  .01
GW 16 6  .3  .45  17.0 0.0  .15  17.0  .01
GE 0
EK
GN 2 0 0 0 13 .005
LD 0 13  3  3 0 0 54.17e-12
LD 5 0 0 0 25000000
FR 0 1 0 0 14.05 1

EX 0 1  1  0  1.0 0.0
EN
