CM MagLoop 20m 50 ohm Feed
CE
GW 1 15 -.5 -.5 0.0 -.5  .5 0.0  .01
GW 2 15 -.5 -.5 0.0  .5 -.5 0.0  .01
GW 3 15  .5 -.5 0.0  .5  .5 0.0  .01
GW 4 15  .5  .5 0.0 -.5  .5 0.0  .01

GW 5 3 -.459 -.059 0.0 -.459  .059 0.0  .005
GW 6 3 -.459 -.059 0.0 -.341 -.059 0.0  .005
GW 7 3 -.341 -.059 0.0 -.341  .059 0.0  .005
GW 8 3 -.341  .059 0.0 -.459  .059 0.0  .005

GE 0
EK

SY C=36.6pF
LD 0 3  8 8 0 0 C
LD 5 0 0 0 57471264

EX 0 5  2  0  1.0 0.0
FR 0 1 0 0 14.05 1

EN
