CM Length X1 = 0
CM Length X2 = 2
CM Length Y = 2
CM X sections = 2
CM Y sections = 2
CM Rotate X, Y, Z = 0, 0, 0
CM Move X, Y, Z = 0, 0, 0
CE
GW     1 4606       .0     -1.0       .0      -.5       .0       .0  .031066
GW     2 4606      -.5       .0       .0     -1.0      1.0       .0   .06703
GW     3 4119       .0     -1.0       .0       .0       .0       .0  .031066
GW     4 4119       .0       .0       .0       .0      1.0       .0   .06703
GW     5 4606       .0     -1.0       .0       .5       .0       .0  .031066
GW     6 4606       .5       .0       .0      1.0      1.0       .0   .06703
GW     7 2060      -.5       .0       .0       .0       .0       .0  .051985
GW     8 2060       .0       .0       .0       .5       .0       .0  .051985
GW     9 4119     -1.0      1.0       .0       .0      1.0       .0  .078371
GW    10 4119       .0      1.0       .0      1.0      1.0       .0  .078371
GE 0
FR 0 0 0 0 6175
