CM Rectangle, bottom fed, 40 meters, #14 copper 
CM L. B. Cebik, W4RNL
CE
GW	1	10	-7.4676	0	6.096	-7.4676	0	12.192	8.14e-4
GW	2	25	-7.4676	0	12.192	7.4676	0	12.192	8.14e-4
GW	3	10	7.4676	0	12.192	7.4676	0	6.096	8.14e-4
GW	4	25	7.4676	0	6.096	-7.4676	0	6.096	8.14e-4
GE	0
LD	5	0	0	0	58001000
EX	0	4	13	0	1	0
GN	0	0	0	0	13	5.e-3
FR	0	1	0	0	7.15	0
EN
