CM Rectangle, side fed, 40 meters, #14 copper 
CM L. B. Cebik, W4RNL
CE
GW	1	11	-7.8486	0	6.096	-7.8486	0	12.192	8.14e-4
GW	2	25	-7.8486	0	12.192	7.8486	0	12.192	8.14e-4
GW	3	11	7.8486	0	12.192	7.8486	0	6.096	8.14e-4
GW	4	25	7.8486	0	6.096	-7.8486	0	6.096	8.14e-4
GE	0
LD	5	0	0	0	58001000
EX	0	3	6	0	1	0
GN	0	0	0	0	13	5.e-3
FR	0	1	0	0	7.15	0
EN
