CM Average gain/Step radius conversion test. 
CM Run an average gain test when step-radius correction disabled and
CM enabled and notice the difference in AGT results for these multi-
CM radius elements
CE
GW	1	8	-457	0	0	-372	0	0	0.25
GW	2	5	-372	0	0	-306	0	0	0.375
GW	3	5	-306	0	0	-240	0	0	0.5
GW	4	10	-240	0	0	-120	0	0	1
GW	5	10	-120	0	0	-12	0	0	1.125
GW	6	3	-12	0	0	12	0	0	2.35
GW	7	10	12	0	0	120	0	0	1.125
GW	8	10	120	0	0	240	0	0	1
GW	9	5	240	0	0	306	0	0	0.5
GW	10	5	306	0	0	372	0	0	0.375
GW	11	8	372	0	0	457	0	0	0.25
GW	12	6	-397.5	234	0	-372	234	0	0.25
GW	13	5	-372	234	0	-306	234	0	0.375
GW	14	5	-306	234	0	-240	234	0	0.5
GW	15	10	-240	234	0	-120	234	0	1
GW	16	10	-120	234	0	-12	234	0	1.125
GW	17	3	-12	234	0	12	234	0	2.35
GW	18	10	12	234	0	120	234	0	1.125
GW	19	10	120	234	0	240	234	0	1
GW	20	5	240	234	0	306	234	0	0.5
GW	21	5	306	234	0	372	234	0	0.375
GW	22	6	372	234	0	397.5	234	0	0.25
GS	0	0	0.0254		' All in in.
GE	0
LD	5	1	0	0	24938000	0
LD	5	2	0	0	24938000	0
LD	5	3	0	0	24938000	0
LD	5	4	0	0	24938000	0
LD	5	5	0	0	24938000	0
LD	5	6	0	0	24938000	0
LD	5	7	0	0	24938000	0
LD	5	8	0	0	24938000	0
LD	5	9	0	0	24938000	0
LD	5	10	0	0	24938000	0
LD	5	11	0	0	24938000	0
LD	5	12	0	0	24938000	0
LD	5	13	0	0	24938000	0
LD	5	14	0	0	24938000	0
LD	5	15	0	0	24938000	0
LD	5	16	0	0	24938000	0
LD	5	17	0	0	24938000	0
LD	5	18	0	0	24938000	0
LD	5	19	0	0	24938000	0
LD	5	20	0	0	24938000	0
LD	5	21	0	0	24938000	0
LD	5	22	0	0	24938000	0
EX	0	17	2	0	1	0
GN	-1
FR	0	1	0	0	7.1	0
EN
