CM 10-18-24 MHz  like GAP TITAN (ñ) DL2KQ
CE
sy hgh=12.3
GW	1	23	0	0	8.25	0	0	5	0.011
GW	2	27	0	0	8.32	0	0	hgh	0.01

SY dl=0.877	'0.9
GW	3	9	0	0	5	-dl	dl	5	5.e-3

GW	4	13	-dl	dl	5	dl	dl	5	1.e-3
GW	5	13	dl	dl	5	dl	-dl	5	1.e-3
GW	6	13	dl	-dl	5	-dl	-dl	5	1.e-3
GW	7	13	-dl	-dl	5	-dl	0.8	5	1.e-3

GW	11	1	0	0	8.32	0	0	8.25	0.011

GW	12	3	0	0	8.25	0.25	0	8.25	2.2e-3
SY L24=5.93
GW	13	17	0.25	0	8.25	0.25	0	L24	6.e-3

SY L18=0.48
GW	8	4	0	0	5	L18	-L18	5	2.2e-3

SY lw=dl-.02
GW	9	9	0	0	4.97	lw	lw	5	6.e-3
GW	10	9	0	0	4.97	-lw	-lw	5	6.e-3

GE	0
EK
EX	0	11	1	0	1	0
GN	3	0	0	0	13	5.e-3

'FR	0	1	0	0	10.11	0
FR	0	1	0	0	18.08	0
'FR	0	1	0	0	24.9	0

EN
