CM Модиф асимм диполь 3.55-7.10-14.1-28.3 (c)DL2KQ
CE
GW 1 27 0.0 0.0  25.0  13.9 0.0  25.0  .0008
GW 2 54 0.0 0.0  25.0 -28.3 0.0  25.0  .0008
GE 1

EX 0 1  1  0  1.0 0.0
EX 0 2  1  0 -1. 0.0

SY cap=620 pf
LD 0 1  1  1 0 0 cap*2
LD 0 2  1  1 0 0 cap*2
GN 3 0 0 0 13  0.005 0.0 0.0

'FR 0 1 0 0 3.55 1
'FR 0 1 0 0 7.10 1
FR 0 1 0 0 14.05 1
'FR 0 1 0 0 18.30 1
EN
