CM 4ele 20m=15m UA4RZ tapered.
CM p.s. original mmana model contains a bug for wire 48 !
CE

GW 1 5 0.0 -5.48  20.0 0.0 -4.168  20.0  .009
GW 2 7 0.0 -4.168  20.0 0.0 -2.26  20.0  .015
GW 3 8 0.0 -2.26  20.0 0.0 -.1  20.0  .019
GW 4 1 0.0 -.1  20.0 0.0  .1  20.0  .025
GW 5 8 0.0  .1  20.0 0.0  2.26  20.0  .019
GW 6 7 0.0  2.26  20.0 0.0  4.168  20.0  .015
GW 7 5 0.0  4.168  20.0 0.0  5.48  20.0  .009
GW 8 1  1.83 -5.11  20.0  1.83 -4.8  20.0  .011
GW 9 10  1.83 -4.8  20.0  1.83 -2.26  20.0  .015
GW 10 8  1.83 -2.26  20.0  1.83 -.1  20.0  .019
GW 11 1  1.83 -.1  20.0  1.83  .1  20.0  .025
GW 12 8  1.83  .1  20.0  1.83  2.26  20.0  .019
GW 13 10  1.83  2.26  20.0  1.83  4.8  20.0  .015
GW 14 1  1.83  4.8  20.0  1.83  5.11  20.0  .011
GW 15 1  3.35 -5.003  20.0  3.35 -4.8  20.0  .011
GW 16 10  3.35 -4.8  20.0  3.35 -2.26  20.0  .015
GW 17 8  3.35 -2.26  20.0  3.35 -.1  20.0  .019
GW 18 1  3.35 -.1  20.0  3.35  .1  20.0  .025
GW 19 8  3.35  .1  20.0  3.35  2.26  20.0  .019
GW 20 10  3.35  2.26  20.0  3.35  4.8  20.0  .015
GW 21 1  3.35  4.8  20.0  3.35  5.003  20.0  .011
GW 22 2  7.77 -4.661  20.0  7.77 -4.168  20.0  .009
GW 23 7  7.77 -4.168  20.0  7.77 -2.26  20.0  .015
GW 24 8  7.77 -2.26  20.0  7.77 -.1  20.0  .019
GW 25 1  7.77 -.1  20.0  7.77  .1  20.0  .025
GW 26 8  7.77  .1  20.0  7.77  2.26  20.0  .019
GW 27 7  7.77  2.26  20.0  7.77  4.168  20.0  .015
GW 28 2  7.77  4.168  20.0  7.77  4.661  20.0  .009

GW 29 3  7.11 -3.607  20.1  7.11 -2.895  20.1  .009
GW 30 11  7.11 -2.895  20.1  7.11 -.1  20.1  .0125
GW 31 1  7.11 -.1  20.1 7.11  .1  20.1  .025
GW 32 11  7.11  .1  20.1  7.11  2.895  20.1  .0125
GW 33 3  7.11  2.895  20.1  7.11  3.607  20.1  .009
GW 34 2  8.33 -3.403  20.1  8.33 -2.895  20.1  .009
GW 35 11  8.33 -2.895  20.1  8.33 -.1  20.1  .0125
GW 36 1  8.33 -.1  20.1  8.33  .1  20.1 .025
GW 37 11  8.33  .1  20.1  8.33  2.895  20.1  .0125
GW 38 2  8.33  2.895  20.1  8.33  3.403  20.1  .009
GW 39 2  9.19 -3.299  20.1  9.19 -2.895  20.1  .009
GW 40 11  9.19 -2.895  20.1  9.19 -.1  20.1  .0125
GW 41 1  9.19 -.1  20.1  9.19  .1  20.1  .025
GW 42 11  9.19  .1  20.1  9.19  2.895  20.1  .0125
GW 43 2  9.19  2.895  20.1  9.19  3.299  20.1  .009
GW 44 1  12.14 -3.036  20.1  12.14 -2.895  20.1  .009
GW 45 11  12.14 -2.895  20.1  12.14 -.1  20.1  .0125
GW 46 1  12.14 -.1  20.1  12.14  .1  20.1  .025
GW 47 11  12.14  .1  20.1  12.14  2.895  20.1  .0125
GW 48 1  12.14  2.895  20.0  12.14 3.036  20.0  .009

GE 1
GN 2 0 0 0 13  0.005

'EX 0 36  1  0  1.0 0.0
'FR 0 1 0 0 21.2 1

EX 0 11  1  0  1.0 0.0
FR 0 1 0 0 14.15 1

EN
