CM 8 band (1.8-3.5-7-14--18-21-24-28) Delta Loop
CM use 'auto-segmentation' for higher bands.
CE
GW 1 23 -16.2 -23.6  30.0 -16.22907  28.10958  30.0  .0008
GW 2 25 -16.22907 -28.10958  30.0  32.45815 0.0  30.0  .0008
GW 3 25  32.45815 0.0  30.0 -16.22907  28.10958  30.0  .0008
GW 4 2 -16.22907 -28.10958  30.0 -16.2 -23.6  30.0  .0008
GE 1
EX 0 4  1  0  1.0 0.0
EX 0 2  1  0 -1. 0.0
LD 0 1  1  1 0.0E0 5.0E-6 0.0E0
GN 2 0 0 0 13  0.005 0.0 0.0
FR 0 1 0 0 1.825 1
EN
