CM Dipole 40m, 20m
CE
GW 1 1 0.0 -.2  25.0 0.0  .02  25.0  .001

sy L40=10.29
GW 2 20 0.0  .02  25.0 0.0  L40  25.0  .001
GW 3 20 0.0 -.2  25.0 0.0 -L40  25.0  .001

sy L20=5.31
GW 4 10 0.0 -.2  25.0  .955 -L20  25.0  .001
GW 5 11 0.0  .02  25.0  .955  L20  25.0  .001
GE 0

GN 2 0 0 0 13 .005
EX 0 1  1  0  1.0 0.0

FR 0 1 0 0 14.15 1
'FR 0 1 0 0 7.05 1

EN
