CM Multiband  (1,8-28) delta 160 m with feeding 2wire line  
CE
sy dl=.2
GW 1 6    0     0      28   0      5      28  .0015
GW 9 1    0     5+dl   28   0      5      28  .0015
GW 2 41   0     5+dl   28   0      45.085 28  .0015
GW 3 70   0     0      28   50     45.085 28  .0015
GW 4 52   0     45.085 28   50     45.085 28  .0015
'GW 5 10  0     5      28   -16.6  5      18  .0015
'GW 6 10  0     5.085  28   -16.6  5.085  18  .0015
GW 7 1    -16.6  5+dl  18   -16.6  5  18  .0015

GE 1
EX 0 7  1  0  1.0 0.0
LD 5 1 0 0 57471264
LD 5 2 0 0 57471264
LD 5 3 0 0 57471264
LD 5 4 0 0 57471264
'LD 5 5 0 0 57471264
'LD 5 6 0 0 57471264
LD 5 7 0 0 57471264

SY Z0=450
TL 7 1 9 1 Z0

GN 2 0 0 0 13  0.005 0.0 0.0
FR 0 1 0 0 1.91 1
EN
