CM 11ele Log Periodic Dipole Array 20m-10m
CE
GW	1	9	0	-0.03	0	0	-2.339	0	1.e-3
GW	2	11	-0.959	-0.03	0	-0.959	-2.779	0	1.e-3
GW	3	12	-1.504	-0.03	0.05	-1.504	-3.029	0.05	1.e-3
GW	4	13	-2.098	-0.03	0	-2.098	-3.302	0	1.e-3
GW	5	14	-2.745	-0.03	0.05	-2.745	-3.599	0.05	1.e-3
GW	6	15	-3.451	-0.03	0	-3.451	-3.923	0	1.e-3
GW	7	17	-4.22	-0.03	0.05	-4.22	-4.276	0.05	1.e-3
GW	8	18	-5.059	-0.03	0	-5.059	-4.661	0	1.e-3
GW	9	20	-5.973	-0.03	0.05	-5.973	-5.081	0.05	1.e-3
GW	10	10	-0.459	-0.03	0.05	-0.459	-2.55	0.05	1.e-3
GW	11	9	0	0.03	0.05	0	2.339	0.05	1.e-3
GW	12	10	-0.459	0.03	0	-0.459	2.55	0	1.e-3
GW	13	11	-0.959	0.03	0.05	-0.959	2.779	0.05	1.e-3
GW	14	12	-1.504	0.03	0	-1.504	3.029	0	1.e-3
GW	15	13	-2.098	0.03	0.05	-2.098	3.302	0.05	1.e-3
GW	16	14	-2.745	0.03	0	-2.745	3.599	0	1.e-3
GW	17	15	-3.451	0.03	0.05	-3.451	3.923	0.05	1.e-3
GW	18	17	-4.22	0.03	0	-4.22	4.276	0	1.e-3
GW	19	18	-5.059	0.03	0.05	-5.059	4.661	0.05	1.e-3
GW	20	20	-5.973	0.03	0	-5.973	5.081	0	1.e-3
GW	21	21	-6.969	0.03	0.05	-6.969	5.545	0.05	1.e-3
GW	22	21	-6.969	-0.03	0	-6.969	-5.545	0	1.e-3
GW	23	2	0	0.03	0.05	-0.459	-0.03	0.05	1.e-3
GW	24	2	0	-0.03	0	-0.459	0.03	0	1.e-3
GW	25	2	-0.459	0.03	0	-0.959	-0.03	0	1.e-3
GW	26	2	-0.459	-0.03	0.05	-0.959	0.03	0.05	1.e-3
GW	27	3	-0.959	0.03	0.05	-1.504	-0.03	0.05	1.e-3
GW	28	3	-0.959	-0.03	0	-1.504	0.03	0	1.e-3
GW	29	3	-1.504	0.03	0	-2.098	-0.03	0	1.e-3
GW	30	3	-1.504	-0.03	0.05	-2.098	0.03	0.05	1.e-3
GW	31	3	-2.098	0.03	0.05	-2.745	-0.03	0.05	1.e-3
GW	32	3	-2.098	-0.03	0	-2.745	0.03	0	1.e-3
GW	33	3	-2.745	0.03	0	-3.451	-0.03	0	1.e-3
GW	34	3	-2.745	-0.03	0.05	-3.451	0.03	0.05	1.e-3
GW	35	3	-3.451	0.03	0.05	-4.22	-0.03	0.05	1.e-3
GW	36	3	-3.451	-0.03	0	-4.22	0.03	0	1.e-3
GW	37	4	-4.22	0.03	0	-5.059	-0.03	0	1.e-3
GW	38	4	-4.22	-0.03	0.05	-5.059	0.03	0.05	1.e-3
GW	39	4	-5.059	0.03	0.05	-5.973	-0.03	0.05	1.e-3
GW	40	4	-5.059	-0.03	0	-5.973	0.03	0	1.e-3
GW	41	4	-5.973	0.03	0	-6.969	-0.03	0	1.e-3
GW	42	4	-5.973	-0.03	0.05	-6.969	0.03	0.05	1.e-3
GW	43	1	0	0.03	0.05	0	-0.03	0	1.e-3
GE	0
EX	0	43	1	0	1	0
GN	-1
FR	0	1	0	0	28.5	0
EN
