CM Multi-Band CQ (20m/17m/15m/12m/10m)
CE

GW 1 11 0.0 -2.685  17.315 0.0  2.685  17.315  .0008
GW 2 11 0.0  2.685  17.315 0.0  2.685  22.685  .0008
GW 3 11 0.0  2.685  22.685 0.0 -2.685  22.685  .0008
GW 4 11 0.0 -2.685  22.685 0.0 -2.685  17.315  .0008
GW 17 7 0.0 -1.7925  18.2075 0.0  1.7925  18.2075  .0008
GW 18 7 0.0  1.7925  18.2075 0.0  1.7925  21.7925  .0008
GW 19 7 0.0  1.7925  21.7925 0.0 -1.7925  21.7925  .0008
GW 20 7 0.0 -1.7925  21.7925 0.0 -1.7925  18.2075  .0008
GW 21 6 0.0 -1.3375  18.6625 0.0  1.3375  18.6625  .0008
GW 22 6 0.0  1.3375  18.6625 0.0  1.3375  21.3375  .0008
GW 23 6 0.0  1.3375  21.3375 0.0 -1.3375  21.3375  .0008
GW 24 6 0.0 -1.3375  21.3375 0.0 -1.3375  18.6625  .0008
GW 25 8 0.0 -2.09  17.91 0.0  2.09  17.91  .0008
GW 26 8 0.0  2.09  17.91 0.0  2.09  22.09  .0008
GW 27 8 0.0  2.09  22.09 0.0 -2.09  22.09  .0008
GW 28 8 0.0 -2.09  22.09 0.0 -2.09  17.91  .0008
GW 29 6 0.0 -1.515  18.485 0.0  1.515  18.485  .0008
GW 30 6 0.0  1.515  18.485 0.0  1.515  21.515  .0008
GW 31 6 0.0  1.515  21.515 0.0 -1.515  21.515  .0008
GW 32 6 0.0 -1.515  21.515 0.0 -1.515  18.485  .0008

GW 5 7 -2.15 -1.85125  18.14875 -2.15  1.85125  18.14875  .0008
GW 6 7 -2.15  1.85125  18.14875 -2.15  1.85125  21.85125  .0008
GW 7 7 -2.15  1.85125  21.85125 -2.15 -1.85125  21.85125  .0008
GW 8 7 -2.15 -1.85125  21.85125 -2.15 -1.85125  18.14875  .0008
GW 9 11 -2.15 -2.76375  17.23625 -2.15  2.76375  17.23625  .0008
GW 10 11 -2.15  2.76375  17.23625 -2.15  2.76375  22.76375  .0008
GW 11 11 -2.15  2.76375  22.76375 -2.15 -2.76375  22.76375  .0008
GW 12 11 -2.15 -2.76375  22.76375 -2.15 -2.76375  17.23625  .0008
GW 13 6 -2.15 -1.44375  18.55625 -2.15  1.44375  18.55625  .0008
GW 14 6 -2.15  1.44375  18.55625 -2.15  1.44375  21.44375  .0008
GW 15 6 -2.15  1.44375  21.44375 -2.15 -1.44375  21.44375  .0008
GW 16 6 -2.15 -1.44375  21.44375 -2.15 -1.44375  18.55625  .0008
GW 33 9 -2.15 -2.14375  17.85625 -2.15  2.14375  17.85625  .0008
GW 34 9 -2.15  2.14375  17.85625 -2.15  2.14375  22.14375  .0008
GW 35 9 -2.15  2.14375  22.14375 -2.15 -2.14375  22.14375  .0008
GW 36 9 -2.15 -2.14375  22.14375 -2.15 -2.14375  17.85625  .0008
GW 37 6 -2.15 -1.54875  18.45125 -2.15  1.54875  18.45125  .0008
GW 38 6 -2.15  1.54875  18.45125 -2.15  1.54875  21.54875  .0008
GW 39 6 -2.15  1.54875  21.54875 -2.15 -1.54875  21.54875  .0008
GW 40 6 -2.15 -1.54875  21.54875 -2.15 -1.54875  18.45125  .0008

GE 0
GN 2 0 0 0 13 .005
EX 0 1  6  0  1.0 0.0
FR 0 1 0 0 14.05 1
EN

