CM Mult-DP 40m,30m,20m,17m,15m,12m,10m,6m
CE
GW 1 40 0.0 -10.49  20.0 0.0  10.49  20.0  .002		
GW 2 20  .11 -5.24  20.0  .11  5.24  20.0  .0008	
GW 3 28 -.12 -7.26  20.0 -.12  7.26  20.0  .0008	
GW 4 10 0.0 -2.65  20.09 0.0  2.65  20.09  .0008	
GW 5 16 0.0 -4.11  19.9 0.0  4.11  19.9  .0008		

GW 6 10  .07 -2.65  20.07  .07  2.65  20.07  .0008
GW 7 1  .07 -2.65  20.07  .07  -2.98  20.07  .0008
GW 8 1  .07 2.65  20.07  .07  2.98  20.07  .0008

GE 1
EX 0 1  20  0  1.0 0.0
GN 2 0 0 0 13  0.005
FR 0 1 0 0 14.05 1
EN
