CM Quad 14, 21, 28 Mhz
CE
GW 1 7 0.0 -2.74375  9.25625 0.0  2.74375  9.25625  .0018
GW 2 7 0.0  2.74375  9.25625 0.0  2.74375  14.74375  .0018
GW 3 7 0.0  2.74375  14.74375 0.0 -2.74375  14.74375  .0018
GW 4 7 0.0 -2.74375  14.74375 0.0 -2.74375  9.25625  .0018
GW 5 7 -4. -2.79375  9.20625 -4.  2.79375  9.20625  .0018
GW 6 7 -4.  2.79375  9.20625 -4.  2.79375  14.79375  .0018
GW 7 7 -4.  2.79375  14.79375 -4. -2.79375  14.79375  .0018
GW 8 7 -4. -2.79375  14.79375 -4. -2.79375  9.20625  .0018
GW 9 7  2.4 -2.625  9.375  2.4  2.625  9.375  .0018
GW 10 7  2.4  2.625  9.375  2.4  2.625  14.625  .0018
GW 11 7  2.4  2.625  14.625  2.4 -2.625  14.625  .0018
GW 12 7  2.4 -2.625  14.625  2.4 -2.625  9.375  .0018

GW 13 5 -2.4 -1.899265  10.20625 -2.4  1.688235  10.20625  .0018
GW 14 5 -2.4 -1.899265  13.79375 -2.4 -1.899265  10.20625  .0018
GW 15 5 -2.4 -1.899265  13.79375 -2.4  1.688235  13.79375  .0018
GW 16 5 -2.4  1.688235  13.79375 -2.4  1.688235  10.20625  .0018
GW 17 5 -4. -1.953947  10.14375 -4.  1.758553  10.14375  .0018
GW 18 5 -4. -1.953947  13.85625 -4. -1.953947  10.14375  .0018
GW 19 5 -4. -1.953947  13.85625 -4.  1.758553  13.85625  .0018
GW 20 5 -4.  1.758553  13.85625 -4.  1.758553  10.14375  .0018
GW 21 5 0.0 -1.86  10.3725 0.0  1.6275  10.3725  .0018
GW 22 5 0.0 -1.86  13.86 0.0 -1.86  10.3725  .0018
GW 23 5 0.0 -1.86  13.86 0.0  1.6275  13.86  .0018
GW 24 5 0.0  1.6275  13.86 0.0  1.6275  10.3725  .0018
GW 25 5  2.4 -1.877884  10.39038  2.4  1.609616  10.39038  .0018
GW 26 5  2.4 -1.877884  13.87788  2.4 -1.877884  10.39038  .0018
GW 27 5  2.4 -1.877884  13.87788  2.4  1.609616  13.87788  .0018
GW 28 5  2.4  1.609616  13.87788  2.4  1.609616  10.39038  .0018

GW 29 3 -2.4 -1.440385  10.76538 -2.4  1.234615  10.76538  .0018
GW 30 3 -2.4 -1.440385  13.44038 -2.4 -1.440385  10.76538  .0018
GW 31 3 -2.4 -1.440385  13.44038 -2.4  1.234615  13.44038  .0018
GW 32 3 -2.4  1.234615  13.44038 -2.4  1.234615  10.76538  .0018
GW 33 3 -4. -1.4  10.69333 -4.  1.4  10.69333  .0018
GW 34 3 -4. -1.4  13.49333 -4. -1.4  10.69333  .0018
GW 35 3 -4. -1.4  13.49333 -4.  1.4  13.49333  .0018
GW 36 3 -4.  1.4  13.49333 -4.  1.4  10.69333  .0018
GW 37 3 0.0 -1.2875  10.82954 0.0  1.2875  10.82954  .0018
GW 38 3 0.0 -1.2875  13.40454 0.0 -1.2875  10.82954  .0018
GW 39 3 0.0 -1.2875  13.40454 0.0  1.2875  13.40454  .0018
GW 40 3 0.0  1.2875  13.40454 0.0  1.2875  10.82954  .0018
GW 41 3  2.4 -1.275  10.98  2.4  1.275  10.98  .0018
GW 42 3  2.4 -1.275  13.53  2.4 -1.275  10.98  .0018
GW 43 3  2.4 -1.275  13.53  2.4  1.275  13.53  .0018
GW 44 3  2.4  1.275  13.53  2.4  1.275  10.98  .0018

GE 1
GN 2 0 0 0 13  0.005 0.0 0.0

FR 0 1 0 0 14.15 1	' 20 m
EX 0 1 4 0 1.0 0.0

'FR 0 1 0 0 21.05 1	' 15 m
'EX 0 13 3 0 1.0 0.0

'FR 0 1 0 0 28.05 1	' 10 m
'EX 0 29 2 0 1.0 0.0

EN
