CM ShoeBox (80m,40m,20m,10m)
CE
GW 1 10 0.0 0.0  13.5 0.0 -4.5  13.5  .0015
GW 2 36 0.0 0.0  13.5 0.0  17.5  13.5  .0015
GW 3 20 0.0 -4.5  13.5 0.0 -4.5  3.0  .0015
GW 4 20 0.0  17.5  13.5 0.0  17.5  3.0  .0015
GE 0
EX 0 1  1  0  1.0 0.0
EX 0 2  1  0 -1. 0.0
FR 0 1 0 0 3.51 1
EN
