CM Triband QQ (14 -w7c, 21-w15c, 28 - w23c, 75 ohms)
CE
GW 1 21 -2.11  2.78  22.78 -2.11 -2.78  22.78  .002
GW 2 21 -2.11 -2.78  22.78 -2.11 -2.78  17.22  .002
GW 3 21 -2.11 -2.78  17.22 -2.11  2.78  17.22  .002
GW 4 21 -2.11  2.78  17.22 -2.11  2.78  22.78  .002
GW 5 21  2.11  2.69  22.69  2.11 -2.69  22.69  .002
GW 6 21  2.11 -2.69  22.69  2.11 -2.69  17.31  .002
GW 7 21  2.11 -2.69  17.31  2.11  2.69  17.31  .002
GW 8 21  2.11  2.69  17.31  2.11  2.69  22.69  .002

GW 9 16 -1.41  1.88  21.88 -1.41 -1.88  21.88  .002
GW 10 16 -1.41 -1.88  21.88 -1.41 -1.88  18.12  .002
GW 11 16 -1.41 -1.88  18.12 -1.41  1.88  18.12  .002
GW 12 16 -1.41  1.88  18.12 -1.41  1.88  21.88  .002
GW 13 15  1.41  1.78  21.78  1.41 -1.78  21.78  .002
GW 14 15  1.41 -1.78  21.78  1.41 -1.78  18.22  .002
GW 15 15  1.41 -1.78  18.22  1.41  1.78  18.22  .002
GW 16 15  1.41  1.78  18.22  1.41  1.78  21.78  .002

GW 17 12 -1.05  1.42  21.42 -1.05 -1.42  21.42  .002
GW 18 12 -1.05 -1.42  21.42 -1.05 -1.42  18.58  .002
GW 19 12 -1.05 -1.42  18.58 -1.05  1.42  18.58  .002
GW 20 12 -1.05  1.42  18.58 -1.05  1.42  21.42  .002
GW 21 11  1.05  1.3138  21.2522  1.05 -1.3138  21.2522  .002
GW 22 11  1.05 -1.3138  21.2522  1.05 -1.3138  18.6247  .002
GW 23 11  1.05 -1.3138  18.6247  1.05  1.3138  18.6247  .002
GW 24 11  1.05  1.3138  18.6247  1.05  1.3138  21.2522  .002

'GW 25 25 0.0 0.0  20.0 0.0 0.0  7.0  .3 ' Not functional for model

GE 1
EK
GN 2 0 0 0 13  0.005

'FR 0 1 0 0 14.15 1
'EX 0 7 11  0  1.0 0.0

'FR 0 1 0 0 21.05 1
'EX 0 15  8  0  1.0 0.0

FR 0 1 0 0 28.05 1
EX 0 23  6  0  1.0 0.0

EN
