CM Open sleeve WARC dipole (c) DL2KQ
CE
SY len=7.293	
GW 1  11 0 -4.06  15.0 0  4.06  15.0  .001
GW 11 4 0 -4.06  15.0 0  -len  15.0  .001	
GW 12 4 0 4.06  15.0 0  len  15.0  .001

GW 2 11 -.04 -4.06  15.0 -.04  4.06  15.0  .001
GW 3 8  .04 -2.965  15.0  .04  2.965  15.0  .001
GE 1

GN 2 0 0 0 13  0.005 0.0 0.0
FR 0 1 0 0 10.11 1
EX 0 1 6 0  1.0 0.0
EN
