CM Does not show gain data for 'use original file', V4.0 does !
CM
CM  48-90 MHz 14 el 6.35 mm elements 2.5m boom 20 mm square
CM This was erected on 23/9/2001, SWR as predicted up to 60 MHz
CE  
GW 1  15  0.000  -1.590  0.  0.000 1.590  0.  .0032 
GW 2  15  0.281  -1.490  0.  0.281 1.490  0.  .0032 
GW 3  15  0.543  -1.390  0.  0.543 1.390  0.  .0032 
GW 4  15  0.788  -1.300  0.  0.788 1.300  0.  .0032 
GW 5  15  1.017  -1.210  0.  1.017 1.210  0.  .0032 
GW 6  15  1.230  -1.130  0.  1.230 1.130  0.  .0032 
GW 7  15  1.429  -1.060  0.  1.429 1.060  0.  .0032 
GW 8  15  1.615  -0.986  0.  1.615 0.986  0.  .0032 
GW 9  15  1.789  -0.921  0.  1.789 0.921  0.  .0032 
GW 10  15 1.951  -0.860  0.  1.951 0.860  0.  .0032 
GW 11  15 2.103  -0.803  0.  2.103 0.803  0.  .0032 
GW 12  15 2.244  -0.749  0.  2.244 0.749  0.  .0032 
GW 13  15 2.376  -0.700  0.  2.376 0.700  0.  .0032 
GW 14  15 2.499  -0.654  0.  2.499 0.654  0.  .0032 
GE 0 0 0. 
EX 0 14 8 00 1. 0.
FR 0 300 0 0 50 2
TL 1 8 2 8 -90 0. 0. 0. 0. 0.
TL 2 8 3 8 -90 0. 0. 0. 0. 0.
TL 3 8 4 8 -90 0. 0. 0. 0. 0.
TL 4 8 5 8 -90 0. 0. 0. 0. 0.
TL 5 8 6 8 -90 0. 0. 0. 0. 0.
TL 6 8 7 8 -90 0. 0. 0. 0. 0.
TL 7 8 8 8 -90 0. 0. 0. 0. 0.
TL 8 8 9 8 -90 0. 0. 0. 0. 0.
TL 9 8 10 8 -90 0. 0. 0. 0. 0.
TL 10 8 11 8 -90 0. 0. 0. 0. 0.
TL 11 8 12 8 -90 0. 0. 0. 0. 0.
TL 12 8 13 8 -90 0. 0. 0. 0. 0.
TL 13 8 14 8 -90 0. 0. 0. 0. 0.
EN
