CM 40 meter 2-el yagi (20m, 10m), converted with 4nec2 on 29-Mar-06 21:31
CE
GW 1 40 -34.55 0 50 -0.05 0 50 3.367e-3
GW 2 40 0.05 0 50 34.55 0 50 3.367e-3
GW 3 81 -34.5 15 50 34.5 15 50 3.367e-3
GS 0 0 0.3048		' All in ft.
GE 0
LD 5 0 0 0 57471265.5 0
EX 6 3 41 0 1 0
GN 2 0 0 0 13 5.e-3
FR 0 1 0 0 14 0
EN
