CM 5-band quad: .174wl sp, converted with 4nec2 on 29-Mar-06 21:31
CE
GW 1 7 -51.8 36 -51.8 51.8 36 -51.8 0.03204186
GW 2 7 51.8 36 -51.8 51.8 36 51.8 0.03204186
GW 3 7 51.8 36 51.8 -51.8 36 51.8 0.03204186
GW 4 7 -51.8 36 51.8 -51.8 36 -51.8 0.03204186
GW 5 7 -56.4 -36 -56.4 56.4 -36 -56.4 0.03204186
GW 6 7 56.4 -36 -56.4 56.4 -36 56.4 0.03204186
GW 7 7 56.4 -36 56.4 -56.4 -36 56.4 0.03204186
GW 8 7 -56.4 -36 56.4 -56.4 -36 -56.4 0.03204186
GW 9 9 -59.3 41.1379921 -59.3 59.3 41.1379921 -59.3 0.03204186
GW 10 9 59.3 41.1379921 -59.3 59.3 41.1379921 59.3 0.03204186
GW 11 9 59.3 41.1379921 59.3 -59.3 41.1379921 59.3 0.03204186
GW 12 9 -59.3 41.1379921 59.3 -59.3 41.1379921 -59.3 0.03204186
GW 13 9 -63.35 -41.138465 -63.35 63.35 -41.138465 -63.35 0.03204186
GW 14 9 63.35 -41.138465 -63.35 63.35 -41.138465 63.35 0.03204186
GW 15 9 63.35 -41.138465 63.35 -63.35 -41.138465 63.35 0.03204186
GW 16 9 -63.35 -41.138465 63.35 -63.35 -41.138465 -63.35 0.03204186
GW 17 11 -70.3 48.35 -70.3 70.3 48.35 -70.3 0.03204186
GW 18 11 70.3 48.35 -70.3 70.3 48.35 70.3 0.03204186
GW 19 11 70.3 48.35 70.3 -70.3 48.35 70.3 0.03204186
GW 20 11 -70.3 48.35 70.3 -70.3 48.35 -70.3 0.03204186
GW 21 11 -74.35 -48.350236 -74.35 74.35 -48.350236 -74.35 0.03204186
GW 22 11 74.35 -48.350236 -74.35 74.35 -48.350236 74.35 0.03204186
GW 23 11 74.35 -48.350236 74.35 -74.35 -48.350236 74.35 0.03204186
GW 24 11 -74.35 -48.350236 74.35 -74.35 -48.350236 -74.35 0.03204186
GW 25 13 -82.65 56.6229921 -82.65 82.65 56.6229921 -82.65 0.03204186
GW 26 13 82.65 56.6229921 -82.65 82.65 56.6229921 82.65 0.03204186
GW 27 13 82.65 56.6229921 82.65 -82.65 56.6229921 82.65 0.03204186
GW 28 13 -82.65 56.6229921 82.65 -82.65 56.6229921 -82.65 0.03204186
GW 29 13 -86.9 -56.623031 -86.9 86.9 -56.623031 -86.9 0.03204186
GW 30 13 86.9 -56.623031 -86.9 86.9 -56.623031 86.9 0.03204186
GW 31 13 86.9 -56.623031 86.9 -86.9 -56.623031 86.9 0.03204186
GW 32 13 -86.9 -56.623031 86.9 -86.9 -56.623031 -86.9 0.03204186
GW 33 15 -106 72.4079921 -106 106 72.4079921 -106 0.03204186
GW 34 15 106 72.4079921 -106 106 72.4079921 106 0.03204186
GW 35 15 106 72.4079921 106 -106 72.4079921 106 0.03204186
GW 36 15 -106 72.4079921 106 -106 72.4079921 -106 0.03204186
GW 37 15 -110.85 -72.407992 -110.85 110.85 -72.407992 -110.85 0.03204186
GW 38 15 110.85 -72.407992 -110.85 110.85 -72.407992 110.85 0.03204186
GW 39 15 110.85 -72.407992 110.85 -110.85 -72.407992 110.85 0.03204186
GW 40 15 -110.85 -72.407992 110.85 -110.85 -72.407992 -110.85 0.03204186
GS 0 0 0.0254		' All in in.
GE 0
LD 5 0 0 0 57471265.5 0
EX 0 1 4 0 1 0
EX 0 9 5 0 0 0
EX 0 17 6 0 0 0
EX 0 25 7 0 0 0
EX 0 33 8 0 0 0
GN -1
FR 0 1 0 0 28.5 0
EN
