CE cone - test - 3 MHz
GW 101 16 0 0 3 70.71 0 73.71 .012
GW 151 16 70.71 0 73.71 0 0 73.71 .012
GR 1 10
GW 1 2 0 0 0 0 0 3 .012
GE 1
GN 3 0 0 0 13 .005
EX 0 1 1 0 100
LD 5 0 0 0 5.7E7
FR 0 0 0 0 3
EN
