CM Crossed dipoles:  14.0 and 21.0 MHz
CE

sy L14=143.17	'144
GW 1 25 -L14 -L14 0 -9 0 0 0.0404331
GW 2 25 9 0 0 L14 L14 0 0.0404331

sy L21=94.85	'95.04
GW 3 17 -L21 L21 0 -9 0 0 0.0404331
GW 4 17 9 0 0 L21 -L21 0 0.0404331

GW 5 3 -9 0 0 9 0 0 0.0404331
GS 0 0 .02540
GE 0
EX 0 5 2 0 1 0
LD 5 0 0 0 5.8001E7
'FR 0 1 0 0 14 1
FR 0 1 0 0 21 1
RP 0 1 361 1000 89 0 1 1
EN
