CM Biconical antenna
CM Cone angle 30 deg.
CE
GW  1    1    0.0000   -0.0250    0.0000    0.0000    0.0250    0.0000 .00300000
GW  0   20    0.0000    0.0250    0.0000    0.3000    0.5446    0.0000 .00300000
GW  0   20    0.0000    0.0250    0.0000   -0.3000    0.5446    0.0000 .00300000
GW  0   20    0.0000    0.0250    0.0000    0.0000    0.5446   -0.3000 .00300000
GW  0   20    0.0000    0.0250    0.0000    0.0000    0.5446    0.3000 .00300000
GW  0   20    0.0000    0.0250    0.0000    0.2121    0.5446    0.2121 .00300000
GW  0   20    0.0000    0.0250    0.0000   -0.2121    0.5446   -0.2121 .00300000
GW  0   20    0.0000    0.0250    0.0000    0.2121    0.5446   -0.2121 .00300000
GW  9   20    0.0000    0.0250    0.0000   -0.2121    0.5446    0.2121 .00300000
GW 10   20   -0.3000   -0.5446    0.0000    0.0000   -0.0250    0.0000 .00300000
GW 11   20    0.3000   -0.5446    0.0000    0.0000   -0.0250    0.0000 .00300000
GW 12   20    0.0000   -0.5446    0.3000    0.0000   -0.0250    0.0000 .00300000
GW 13   20    0.0000   -0.5446   -0.3000    0.0000   -0.0250    0.0000 .00300000
GW 14   20   -0.2121   -0.5446   -0.2121    0.0000   -0.0250    0.0000 .00300000
GW 15   20    0.2121   -0.5446    0.2121    0.0000   -0.0250    0.0000 .00300000
GW 16   20   -0.2121   -0.5446    0.2121    0.0000   -0.0250    0.0000 .00300000
GW 17   20    0.2121   -0.5446   -0.2121    0.0000   -0.0250    0.0000 .00300000
GE  0
EX      0       1       1       00      1.0000  0.0000
FR      0       0       0       0       50
EN
