CM 2 el. spider quad 4N1AW
CE 					
SY r14 = 2.805, d14 = 2.696
SY r21 = 1.882, d21 = 1.781
SY r28 = 1.423 , d28 = 1.332
SY r50 = 0.802, d50 = 0.747
SY rz = 0.0009
SY tl = 5.297
GW	1	37	-1.589	-r14	-r14	-1.589	r14	-r14	rz	
GW	2	37	-1.589	-r14	-r14	-1.589	-r14	r14	rz
GW	3	37	-1.589	-r14	r14	-1.589	r14	r14	rz
GW	4	37	-1.589	r14	r14	-1.589	r14	-r14	rz
GW	5	35	1.589	-d14	-d14	1.589	d14	-d14	rz
GW	6	35	1.589	-d14	-d14	1.589	-d14	d14	rz
GW	7	35	1.589	-d14	d14	1.589	d14	d14	rz
GW	8	35	1.589	d14	d14	1.589	d14	-d14	rz
GW	9	25	-1.063	-r21	-r21	-1.063	r21	-r21	rz
GW	10	25	-1.063	-r21	-r21	-1.063	-r21	r21	rz
GW	11	25	-1.063	-r21	r21	-1.063	r21	r21	rz
GW	12	25	-1.063	r21	r21	-1.063	r21	-r21	rz
GW	13	23	1.063	-d21	-d21	1.063	d21	-d21	rz
GW	14	23	1.063	-d21	-d21	1.063	-d21	d21	rz
GW	15	23	1.063	-d21	d21	1.063	d21	d21	rz
GW	16	23	1.063	d21	d21	1.063	d21	-d21	rz
GW	17	19	-0.795	-r28	-r28	-0.795	r28	-r28	rz
GW	18	19	-0.795	-r28	-r28	-0.795	-r28	r28	rz
GW	19	19	-0.795	-r28	r28	-0.795	r28	r28	rz
GW	20	19	-0.795	r28	r28	-0.795	r28	-r28	rz
GW	21	17	0.795	-d28	-d28	0.795	d28	-d28	rz
GW	22	17	0.795	-d28	-d28	0.795	-d28	d28	rz
GW	23	17	0.795	-d28	d28	0.795	d28	d28	rz
GW	24	17	0.795	d28	d28	0.795	d28	-d28	rz
GW	25	11	-0.448	-r50	-r50	-0.448	r50	-r50	rz
GW	26	11	-0.448	-r50	-r50	-0.448	-r50	r50	rz
GW	27	11	-0.448	-r50	r50	-0.448	r50	r50	rz
GW	28	11	-0.448	r50	r50	-0.448	r50	-r50	rz
GW	29	9	0.448	-d50	-d50	0.448	d50	-d50	rz
GW	30	9	0.448	-d50	-d50	0.448	-d50	d50	rz
GW	31	9	0.448	-d50	d50	0.448	d50	d50	rz
GW	32	9	0.448	d50	d50	0.448	d50	-d50	rz
GW	33	1	1.589	-0.075	-5	1.589	0.075	-5	0.001
GM	0	0	0	0	0	0	0	7
GE	-1
GN	2	0	0	0	5	0.001
LD	5	0	0	0	5.8e7
TL	5	18	33	1	75	tl
EX	0	33	1	00	1	0
FR	0	1	0	0	14.150	1
EN					

