CM 15edzph2.nec
CM 15 meter phased collinear EDZs                    
CM High-gain, narrow-beam width bidirectional
CE

GW 1,27,-19.202,0.,15.24,-10.82,0.,15.24,.00103
GW 2,71,-10.82,0.,15.24,10.8204,0.,15.24,.00103
GW 3,27,10.8204,0.,15.24,19.2024,0.,15.24,.00103
GW 4,27,-19.202,0.,24.0792,-10.82,0.,24.0792,.00103
GW 5,71,-10.82,0.,24.0792,10.8204,0.,24.0792,.00103
GW 6,27,10.8204,0.,24.0792,19.2024,0.,24.0792,.00103
GW 7,1,-.0609,0.,19.6596,.06096,0.,19.6596,.00103
GW 8,1,-.0609,5.1816,19.6596,.06096,5.1816,19.6596,.00103

GW 21,1,-10.52,0.,10.24,-10.21,0.,10.24,.00103
GW 22,1,10.211,0.,10.24,10.516,0.,10.24,.00103

GW 51,1,-10.52,0.,20.792,-10.21,0.,20.792,.00103
GW 52,1,10.211,0.,20.792,10.516,0.,20.792,.00103

GW 80,1,-.0609,5.1816,15.6596,.06096,5.1816,15.6596,.00103

GE 1
LD 4,7,1,1,0.,0.
LD 5,0,0,0,5.7471E+7

FR 0,1,0,0,21.2
GN 1,0,0,0,0.,0.
EX 0,8,1,0,1,0.

TL 2,2,21,1,450.,2.631826,0.,0.,1.E+10,1.E+10
TL 2,70,22,1,450.,2.631826,0.,0.,1.E+10,1.E+10
TL 5,2,51,1,450.,2.631826,0.,0.,1.E+10,1.E+10
TL 5,70,52,1,450.,2.631826,0.,0.,1.E+10,1.E+10

TL 2,36,7,1,450.,4.65221,0.,0.,0.,0.
TL 5,36,7,1,450.,4.652212,0.,0.,0.,0.
TL 7,1,8,1,450.,5.470358,0.,0.,0.,0.
TL 8,1,80,1,450.,.5037221,0.,0.,1.E+10,1.E+10

GD 2,0,0,0,15.,.002,0.,0.
EN
