CM Example file by Dimitry Fedorov, UA3AVR
CE
GW 1 39 0 -2.55803 7.1 0 2.55803 7.1 0.008
GW 2 39 0 -2.55803 0 0 2.55803 0 0.008
GM 0 0 0 0 90 0 0 1.5 0
GW 3 20 -10 -7 -3 10 -7 -3 0.001
GW 4 20 -10 -6 -2.57143 10 -6 -2.57143 0.001
GW 5 20 -10 -5 -2.14286 10 -5 -2.14286 0.001
GW 6 20 -10 -4 -1.71429 10 -4 -1.71429 0.001
GW 7 20 -10 -3 -1.28571 10 -3 -1.28571 0.001
GW 8 20 -10 -2 -0.85714 10 -2 -0.85714 0.001
GW 9 20 -10 -1 -0.42857 10 -1 -0.42857 0.001
GW 10 20 -10 0 0 10 0 0 0.001
GW 11 20 -10 1 -0.42857 10 1 -0.42857 0.001
GW 12 20 -10 2 -0.85714 10 2 -0.85714 0.001
GW 13 20 -10 3 -1.28571 10 3 -1.28571 0.001
GW 14 20 -10 4 -1.71429 10 4 -1.71429 0.001
GW 15 20 -10 5 -2.14286 10 5 -2.14286 0.001
GW 16 20 -10 6 -2.57143 10 6 -2.57143 0.001
GW 17 20 -10 7 -3 10 7 -3 0.001
GW 18 7 -10 -7 -3 -10 0 0 0.001
GW 19 7 -9 -7 -3 -9 0 0 0.001
GW 20 7 -8 -7 -3 -8 0 0 0.001
GW 21 7 -7 -7 -3 -7 0 0 0.001
GW 22 7 -6 -7 -3 -6 0 0 0.001
GW 23 7 -5 -7 -3 -5 0 0 0.001
GW 24 7 -4 -7 -3 -4 0 0 0.001
GW 25 7 -3 -7 -3 -3 0 0 0.001
GW 26 7 -2 -7 -3 -2 0 0 0.001
GW 27 7 -1 -7 -3 -1 0 0 0.001
GW 28 7 0 -7 -3 0 0 0 0.001
GW 29 7 1 -7 -3 1 0 0 0.001
GW 30 7 2 -7 -3 2 0 0 0.001
GW 31 7 3 -7 -3 3 0 0 0.001
GW 32 7 4 -7 -3 4 0 0 0.001
GW 33 7 5 -7 -3 5 0 0 0.001
GW 34 7 6 -7 -3 6 0 0 0.001
GW 35 7 7 -7 -3 7 0 0 0.001
GW 36 7 8 -7 -3 8 0 0 0.001
GW 37 7 9 -7 -3 9 0 0 0.001
GW 38 7 10 -7 -3 10 0 0 0.001
GW 39 7 -10 0 0 -10 7 -3 0.001
GW 40 7 -9 0 0 -9 7 -3 0.001
GW 41 7 -8 0 0 -8 7 -3 0.001
GW 42 7 -7 0 0 -7 7 -3 0.001
GW 43 7 -6 0 0 -6 7 -3 0.001
GW 44 7 -5 0 0 -5 7 -3 0.001
GW 45 7 -4 0 0 -4 7 -3 0.001
GW 46 7 -3 0 0 -3 7 -3 0.001
GW 47 7 -2 0 0 -2 7 -3 0.001
GW 48 7 -1 0 0 -1 7 -3 0.001
GW 49 7 0 0 0 0 7 -3 0.001
GW 50 7 1 0 0 1 7 -3 0.001
GW 51 7 2 0 0 2 7 -3 0.001
GW 52 7 3 0 0 3 7 -3 0.001
GW 53 7 4 0 0 4 7 -3 0.001
GW 54 7 5 0 0 5 7 -3 0.001
GW 55 7 6 0 0 6 7 -3 0.001
GW 56 7 7 0 0 7 7 -3 0.001
GW 57 7 8 0 0 8 7 -3 0.001
GW 58 7 9 0 0 9 7 -3 0.001
GW 59 7 10 0 0 10 7 -3 0.001
GM 0 0 0 0 -90 0 0 28 0
GS 0 0 1.0
GE 1
GN 2 0 0 0 30 0.001
FR 0 1 0 0 28.05 1
TL 1 20 2 20 50 10.69518717
EX 0 2 20 0 0.5000 0.0000
'RP 0 1 360 1000 85 0 0 1
RP 0 181 1 1000 90 0 -1 0
EN
