CM SLOPE3,  2 X 160 m sloping dip.
CE
sy dY=218		'old value
'sy dy=210		'New resonance
GW 1 101 0 2 150 0 dY 10 2.6706e-3
GW 2 101 0 -dY 10 0 -2 150 2.6706e-3
GS 0 0 0.3048		' All in ft.
GE 0
LD 5 1 0 0 57471265.5 0
LD 5 2 0 0 57471265.5 0
EX 6 1 51 0 1 0
EX 6 2 51 0 1 0
GN 2 0 0 0 13 5.e-3
FR 0 1 0 0 1.83 0
EN
