CM Fractal Antenna
CM Select 'use original file' to Generate and
CM use left/right arrow in Pattern form to walk
CM through all far-field patterns
CE	
GW 1 6 2 -2 0 10 -4.5 0 0.05
GW 2 8 10 -4.5 0 2 -7 0 0.05
GW 3 6 2 -7 0 4.5 -15 0 0.05
GW 4 6 4.5 -15 0 7 -7 0 0.05
GW 5 4 7 -7 0 11 -9.5 0 0.05
GW 6 4 11 -9.5 0 7 -12 0 0.05
GW 7 4 7 -12 0 12 -16 0 0.05
GW 8 4 12 -16 0 17 -12 0 0.05
GW 9 4 17 -12 0 13 -7 0 0.05
GW 10 4 13 -7 0 17 -2 0 0.05
GW 11 2 17 -2 0 17 2 0 0.05
GW 12 4 17 2 0 13 7 0 0.05
GW 13 4 13 7 0 17 12 0 0.05
GW 14 4 17 12 0 12 16 0 0.05
GW 15 4 12 16 0 7 12 0 0.05
GW 16 4 7 12 0 11 9.5 0 0.05
GW 17 4 11 9.5 0 7 7 0 0.05
GW 18 6 7 7 0 4.5 15 0 0.05
GW 19 6 4.5 15 0 2 7 0 0.05
GW 20 6 2 7 0 10 4.5 0 0.05
GW 21 6 10 4.5 0 2 2 0 0.05
GW 22 2 2 2 0 -2 2 0 0.05
GW 23 6 -2 2 0 -10 4.5 0 0.05
GW 24 6 -10 4.5 0 -2 7 0 0.05
GW 25 6 -2 7 0 -4.5 15 0 0.05
GW 26 6 -4.5 15 0 -7 7 0 0.05
GW 27 4 -7 7 0 -11 9.5 0 0.05
GW 28 4 -11 9.5 0 -7 12 0 0.05
GW 29 4 -7 12 0 -12 16 0 0.05
GW 30 4 -12 16 0 -17 12 0 0.05
GW 31 4 -17 12 0 -13 7 0 0.05
GW 32 4 -13 7 0 -17 2 0 0.05
GW 33 2 -17 2 0 -17 -2 0 0.05
GW 34 4 -17 -2 0 -13 -7 0 0.05
GW 35 4 -13 -7 0 -17 -12 0 0.05
GW 36 4 -17 -12 0 -12 -16 0 0.05
GW 37 4 -12 -16 0 -7 -12 0 0.05
GW 38 4 -7 -12 0 -11 -9.5 0 0.05
GW 39 4 -11 -9.5 0 -7 -7 0 0.05
GW 40 6 -7 -7 0 -4.5 -15 0 0.05
GW 41 6 -4.5 -15 0 -2 -7 0 0.05
GW 42 6 -2 -7 0 -10 -4.5 0 0.05
GW 43 6 -10 -4.5 0 -2 -2 0 0.05
GW 44 3 -2 -2 0 2 -2 0 0.05
GS 0 0 .01
GE 0
EX 0 44 2 0 1 0
LD 5 1 1 6 5.8001E7
LD 5 2 1 8 5.8001E7
LD 5 3 1 6 5.8001E7
LD 5 4 1 6 5.8001E7
LD 5 5 1 4 5.8001E7
LD 5 6 1 4 5.8001E7
LD 5 7 1 4 5.8001E7
LD 5 8 1 4 5.8001E7
LD 5 9 1 4 5.8001E7
LD 5 10 1 4 5.8001E7
LD 5 11 1 2 5.8001E7
LD 5 12 1 4 5.8001E7
LD 5 13 1 4 5.8001E7
LD 5 14 1 4 5.8001E7
LD 5 15 1 4 5.8001E7
LD 5 16 1 4 5.8001E7
LD 5 17 1 4 5.8001E7
LD 5 18 1 6 5.8001E7
LD 5 19 1 6 5.8001E7
LD 5 20 1 6 5.8001E7
LD 5 21 1 6 5.8001E7
LD 5 22 1 2 5.8001E7
LD 5 23 1 6 5.8001E7
LD 5 24 1 6 5.8001E7
LD 5 25 1 6 5.8001E7
LD 5 26 1 6 5.8001E7
LD 5 27 1 4 5.8001E7
LD 5 28 1 4 5.8001E7
LD 5 29 1 4 5.8001E7
LD 5 30 1 4 5.8001E7
LD 5 31 1 4 5.8001E7
LD 5 32 1 4 5.8001E7
LD 5 33 1 2 5.8001E7
LD 5 34 1 4 5.8001E7
LD 5 35 1 4 5.8001E7
LD 5 36 1 4 5.8001E7
LD 5 37 1 4 5.8001E7
LD 5 38 1 4 5.8001E7
LD 5 39 1 4 5.8001E7
LD 5 40 1 6 5.8001E7
LD 5 41 1 6 5.8001E7
LD 5 42 1 6 5.8001E7
LD 5 43 1 6 5.8001E7
LD 5 44 1 3 5.8001E7
FR 0 81 0 0 100 5
RP 0 1 360 1000 89 0 1 1
EN
