CM 2el K9AY
CE
GW 1 8 -8.5 0.0  0.0 -11.5  0.0  4.0  .005
GW 2 8  -8.5 0.0  0.0 -5.5  0.0  4.0  .005
GW 3 4  -5.5 0.0  4.0 -8.5  0.0  6.0  .005
GW 4 4  -8.5 0.0  6.0 -11.5 0.0  4.0  .005
GW 5 8  15 0.0 0.0  18 0.0  4.0  .005
GW 6 8  15 0.0 0.0  12 0.0  4.0  .005
GW 7 4  15 0.0 6.0  12 0.0  4.0  .005
GW 8 4  18 0.0 4.0  15 0.0  6.0  .005
GE 1
LD 4 1  1  1  150  0 
LD 4 6  1  1  150  0 
LD 5 0 0 0 57471264
GN 3 0 0 0 13  0.005 0.0 0.0
EX 0 1  1  0  1 0.0

sy ang=-135.3
EX 0 6  1  0  1*cos(ang) 1*sin(ang)

FR 0 1 0 0 1.825 1

EN
