CM Beverage 350 m (receive 1,8....14 MHz)
CE
GW 1 3 0.0 0.0 0.0 0.0 0.0  3.0  .001
GW 2 83 0.0 0.0  3.0  350 0.0  3.0  .001
GW 3 3  350 0.0  3.0  350 0.0 0.0  .001
GE 1
LD 4 3  1  1  500  0 
GN 3 0 0 0 13  0.005 0.0 0.0
EX 0 1  1  0  1.0 0.0
FR 0 1 0 0 1.825 1
EN
