CM Beverage 200 m (receive 1,8...28 MHz)
CE
GW 1 7 0.0 0.0 0.0 0.0 0.0  2.5  .0008
GW 2 7 200.0 0.0 0.0  200.0 0.0  2.5  .0008
GW 3 400 0.0 0.0  2.5  200.0 0.0  2.5  .0008
GE 1
EX 0 1  4  0  1.0 0.0
LD 4 2  4  4  600  0 
GN 3 0 0 0 13  0.005 0.0 0.0
FR 0 1 0 0 28.05 1
EN
