CM Ewe Antenna receive 1,8 MHz
CE
GW 1 8 0.0 0.0 0.0 0.0 0.0  3.0  .001
GW 2 22 0.0 0.0  3.0 -11.6 0.0  3.0  .001
GW 3 8 -11.6 0.0  3.0 -11.6 0.0 0.0  .001
GE 1
sy R=1250	'840
LD 4 3  8  8  R  0 
LD 0 1  2  2  0 37.8uH 0 
GN 3 0 0 0 13  0.005
EX 0 1  1  0  1.0 0.0
FR 0 1 0 0 1.825 1
EN
