CM Flag K6SE (RX 160-80-40-30-20m)
CE
GW 1 19  2.0 0  1.5 -2.0  0 1.5  .0008
GW 2 9  2.0 0  3.5  2.0  0 1.5  .0008
GW 3 19  2.0 0  3.5 -2.0  0 3.5  .0008
GW 4 9 -2.0 0  3.5 -2.0  0 1.5  .0008
GE 1
sy R=890
LD 4 4  5  5  R  0 
GN 2 0 0 0 13  0.005
EX 0 2  5  0  1.0 0.0
FR 0 1 0 0 1.825 1
EN
