CM Rhombic 7 MHz and up
CE
GW 1 1 0.0 -.1  10.0 0.0  .1  10.0  .0015
GW 2 1  96.0 -.1  10.0  96.0  .1  10.0  .0015
GW 3 100 0.0 -.1  10.0  46.0 -23.  10.0  .0015
GW 4 100 0.0  .1  10.0  46.0  23.0  10.0  .0015
GW 5 100  46.0 -23.  10.0  96.0 -.1  10.0  .0015
GW 6 100  46.0  23.0  10.0  96.0  .1  10.0  .0015
GE 1
LD 4 2  1  1  600  0 
GN 2 0 0 0 13  0.005
EX 0 1  1  0  1.0 0.0
FR 0 1 0 0 14.05 1
EN
