CM T2FD  7...28 MHz
CE
GW 1 29 0.0 0.0  1.8 0.0  12.12  8.8  .0015
GW 2 1 0.0 0.0  1.8 0.0 -.225  2.2  .0015
GW 3 29 0.0 -.225  2.2 0.0  11.895  9.2  .0015
GW 4 1 0.0  11.895  9.2 0.0  12.12  8.8  .0015
GE 1
LD 4 3  15  15  650  0 
GN 2 0 0 0 13  0.005
EX 0 1  15  0  1.0 0.0
FR 0 1 0 0 7.01 1
EN
