CM Super wide band dipole 2,5-33 MHz
CE
GW 1 1 0.0 -.1  10.0 0.0  .1  10.0  .001
GW 2 2 0.0  .1  10.0 0.0  1.2  10.9  .001
GW 3 2 0.0  .1  10.0 0.0  1.2  9.1  .001
GW 4 1 0.0  1.2  10.9 0.0  1.2  9.1  .005
GW 5 2 0.0 -.1  10.0 0.0 -1.2  9.1  .001
GW 6 2 0.0 -.1  10.0 0.0 -1.2  10.9  .001
GW 7 1 0.0 -1.2  10.9 0.0 -1.2  9.1  .005	
GW 8 6 0.0  1.2  10.9 0.0  13.4  10.9  .001
GW 9 6 0.0  1.2  9.1 0.0  13.4  9.1  .001
GW 10 6 0.0 -1.2  10.9 0.0 -13.4  10.9  .001
GW 11 6 0.0 -1.2  9.1 0.0 -13.4  9.1  .001
GW 12 1 0.0  13.4  10.9 0.0  13.4  10.25  .005
GW 13 1 0.0  13.4  10.25 0.0  13.4  9.75  .005	
GW 14 1 0.0  13.4  9.75 0.0  13.4  9.1  .005	
GW 15 1 0.0  13.4  10.25 0.0  13.85  10.25  .001
GW 16 1 0.0  13.4  9.75 0.0  13.85  9.75  .001
GW 17 1 0.0  13.85  10.25 0.0  13.85  9.75  .005	
GW 18 1 0.0  13.85  10.25 0.0  13.85  10.9  .005	
GW 19 1 0.0  13.85  9.75 0.0  13.85  9.1  .005	
GW 20 3 0.0  13.85  10.9 0.0  20.25  10.9  .001
GW 21 3 0.0  13.85  9.1 0.0  20.25  9.1  .001
GW 22 1 0.0  20.25  10.9 0.0  20.25  9.1  .005	
GW 23 1 0.0 -13.4  10.9 0.0 -13.4  10.25  .005	
GW 24 1 0.0 -13.4  10.25 0.0 -13.4  9.75  .005	
GW 25 1 0.0 -13.4  9.75 0.0 -13.4  9.1  .005	
GW 26 1 0.0 -13.4  10.25 0.0 -13.85  10.25  .001
GW 27 1 0.0 -13.4  9.75 0.0 -13.85  9.75  .001
GW 28 1 0.0 -13.85  10.9 0.0 -13.85  10.25  .005	
GW 29 1 0.0 -13.85  10.25 0.0 -13.85  9.75  .005
GW 30 1 0.0 -13.85  9.75 0.0 -13.85  9.1  .005
GW 31 3 0.0 -13.85  10.9 0.0 -20.25  10.9  .001
GW 32 3 0.0 -13.85  9.1 0.0 -20.25  9.1  .001
GW 33 1 0.0 -20.25  10.9 0.0 -20.25  9.1  .005
GE 1
'LD 6 15  1  1  100  16uH 
'LD 4 16  1  1  330  0 
'LD 6 26  1  1  100  16uH 
'LD 4 27  1  1  330  0 
GN 2 0 0 0 13  0.005 0.0 0.0
EX 0 1  1  0  1.0 0.0
FR 0 1 0 0 3.51 1
EN
