CM 4-square array w/feed system, converted with 4nec2 on 31-mei-05 20:58
CE
GW	1	6	0	0	0	0	0	32.75	0.0625
GW	2	6	0	34.42	0	0	34.42	32.75	0.0625
GW	3	6	34.42	0	0	34.42	0	32.75	0.0625
GW	4	6	34.42	34.42	0	34.42	34.42	32.75	0.0625
GW	5	1	17.0	0	1.e-2	17.0	0.2	1.e-2	4.16667e-4
GW	6	1	0	17.0	1.e-2	0.2	17.0	1.e-2	4.16667e-4
GW	7	1	17.0	17.0	1.e-2	17.0	17.2	1.e-2	4.16667e-4
GS	0	0	0.3048		' All in ft.
GE	1
TL	5	1	1	1	50	10.4822536
TL	5	1	4	1	50	31.4467609
TL	6	1	2	1	50	10.4822536
TL	6	1	3	1	50	10.4822536
TL	5	1	7	1	75	3.65364784
TL	6	1	7	1	75	20.2260912
EX	6	7	1	0	1	0
GN	3	0	0	0	13	5.e-3
FR	0	1	0	0	7.1500001	0
EN
