CM Radio Bloemendaal 1116 KHz
CE
GW	1	9	0.0	0.0	25.0	11.7	0.0	25.0	0.0025
GW	2	9	0.0	0.52	25.0	11.7	0.52	25.0	0.0025
GW	3	9	0.0	-0.52	25.0	11.7	-0.52	25.0	0.0025
GW	4	9	0.0	0.52	25.0	-11.7	0.52	25.0	0.0025
GW	5	9	0.0	-0.52	25.0	-11.7	-0.52	25.0	0.0025
GW	6	9	0.0	0.0	25.0	-11.7	0.0	25.0	0.0025
GW	7	1	11.7	0.0	25.0	12.41	0.0	25.0	0.0025
GW	8	1	11.7	0.52	25.0	12.41	0.0	25.0	0.0025
GW	9	1	11.7	-0.52	25.0	12.41	0.0	25.0	0.0025
GW	10	1	-11.7	0.52	25.0	-12.41	0.0	25.0	0.0025
GW	11	1	-11.7	-0.52	25.0	-12.41	0.0	25.0	0.0025
GW	12	1	-11.7	0.0	25.0	-12.41	0.0	25.0	0.0025
GW	13	1	0.0	0.0	25.0	0.0	0.0	24.29	0.0025
GW	14	1	0.0	0.52	25.0	0.0	0.0	24.29	0.0025
GW	15	1	0.0	-0.52	25.0	0.0	0.0	24.29	0.0025
GW	16	19	0.0	0.0	0.0	0.0	0.0	24.29	0.0025
GW	17	23	16.0	0.0	0.0	16.0	0.0	30.0	0.1
GW	18	23	-16.0	0.0	0.0	-16.0	0.0	30.0	0.1
GE	1

sy Q=100, L=12.82uH, C=0
LD	6	16	1	1	Q	L	C

GN	0	50	0	0	13	5.e-3		50	2.e-3	' Ground screen

EX	0	16	1	0	100	0
FR	0	1	0	0	1.12	0
EN
