CM Cardioid with feed system, converted with 4nec2 on 31-mei-05 21:01
CE
GW	1	6	0	0	0	0	0	0.242	1.21e-4
GW	2	6	0.25	0	0	0.25	0	0.242	1.21e-4
GW	3	1	0.125	0	1.e-2	0.125	1.e-2	1.e-2	1.21e-4
GE	1
EK
TL	3	1	1	1	50	0.22377773
TL	3	1	2	1	50	0.42924992
EX	6	3	1	0	1	0
GN	3	0	0	0	13	.005
FR	0	1	0	0	299.792511	0
EN
