CM Vertikal tower with isolators by Alexandre Kampouris
CM to test for isolator stress.
CM Use show -> EX/LD info on Main form for voltages 
CM across isolators at specified power.
CE
GW	1	1	0.5196	0	1.927	0.5196	0	1	0.05
GW	2	1	1.1897	0	23.798	1.7641	0	23.624	6.5e-3
GW	3	1	37.567	0	12.813	38.142	0	12.64	6.5e-3
GW	4	1	73.945	0	1.8283	74.52	0	1.6549	6.5e-3
GW	5	1	1.1188	0	47.638	1.6324	0	47.328	6.5e-3
GW	6	1	33.647	0	27.994	34.161	0	27.683	6.5e-3
GW	7	1	66.175	0	8.349	66.689	0	8.0388	6.5e-3
GW	8	1	1.0384	0	71.53	1.4831	0	71.127	6.5e-3
GW	9	1	29.201	0	46.018	29.646	0	45.615	6.5e-3
GW	10	1	57.364	0	20.506	57.808	0	20.103	6.5e-3
GW	11	1	0.966	0	95.461	1.3487	0	94.999	6.5e-3
GW	12	1	25.199	0	66.191	25.582	0	65.729	6.5e-3
GW	13	1	49.433	0	36.921	49.815	0	36.458	6.5e-3
GW	14	1	73.666	0	7.6503	74.049	0	7.1881	6.5e-3
GW	15	1	0.9965	0	122.49	1.4053	0	122.05	6.5e-3
GW	16	1	26.886	0	94.672	27.295	0	94.232	6.5e-3
GW	17	1	52.775	0	66.855	53.184	0	66.416	6.5e-3
GW	18	1	78.665	0	39.039	79.074	0	38.6	6.5e-3
GW	19	1	104.55	0	11.223	104.96	0	10.784	6.5e-3
GW	20	1	0.9443	0	149.44	1.3083	0	148.97	6.5e-3
GW	21	1	23.999	0	119.24	24.363	0	118.76	6.5e-3
GW	22	1	47.053	0	89.029	47.417	0	88.552	6.5e-3
GW	23	1	70.108	0	58.821	70.472	0	58.344	6.5e-3
GW	24	1	93.162	0	28.614	93.526	0	28.137	6.5e-3
GW	25	1	0.9044	0	173.42	1.2342	0	172.91	6.5e-3
GW	26	1	21.791	0	141.67	22.12	0	141.17	6.5e-3
GW	27	1	42.677	0	109.93	43.007	0	109.42	6.5e-3
GW	28	1	63.563	0	78.179	63.893	0	77.678	6.5e-3
GW	29	1	84.45	0	46.434	84.779	0	45.933	6.5e-3
GW	30	1	105.34	0	14.689	105.67	0	14.188	6.5e-3
GW	501	1	0.5196	0	0	0.5196	0	1	0.05
GW	551	7	0.5196	0	1.927	0.5196	0	24	0.05
GW	552	8	0.5196	0	24	0.5196	0	48	0.05
GW	553	8	0.5196	0	48	0.5196	0	72	0.05
GW	554	8	0.5196	0	72	0.5196	0	96	0.05
GW	555	9	0.5196	0	96	0.5196	0	123	0.05
GW	556	9	0.5196	0	123	0.5196	0	150	0.05
GW	557	8	0.5196	0	150	0.5196	0	174	0.05
GW	558	2	0.5196	0	174	0.5196	0	181.5	0.05
GW	601	1	0.5196	0	24	1.1897	0	23.798	6.5e-3
GW	602	13	1.7641	0	23.624	37.567	0	12.813	6.5e-3
GW	603	13	38.142	0	12.64	73.945	0	1.8283	6.5e-3
GW	604	2	74.52	0	1.6549	80	0	0	6.5e-3
GW	651	1	0.5196	0	48	1.1188	0	47.638	6.5e-3
GW	652	13	1.6324	0	47.328	33.647	0	27.994	6.5e-3
GW	653	13	34.161	0	27.683	66.175	0	8.349	6.5e-3
GW	654	6	66.689	0	8.0388	80	0	0	6.5e-3
GW	701	1	0.5196	0	72	1.0384	0	71.53	6.5e-3
GW	702	13	1.4831	0	71.127	29.201	0	46.018	6.5e-3
GW	703	13	29.646	0	45.615	57.364	0	20.506	6.5e-3
GW	704	10	57.808	0	20.103	80	0	0	6.5e-3
GW	751	1	0.5196	0	96	0.966	0	95.461	6.5e-3
GW	752	13	1.3487	0	94.999	25.199	0	66.191	6.5e-3
GW	753	13	25.582	0	65.729	49.433	0	36.921	6.5e-3
GW	754	13	49.815	0	36.458	73.666	0	7.6503	6.5e-3
GW	755	4	74.049	0	7.1881	80	0	0	6.5e-3
GW	801	1	0.5196	0	123	0.9965	0	122.49	6.5e-3
GW	802	13	1.4053	0	122.05	26.886	0	94.672	6.5e-3
GW	803	13	27.295	0	94.232	52.775	0	66.855	6.5e-3
GW	804	13	53.184	0	66.416	78.665	0	39.039	6.5e-3
GW	805	13	79.074	0	38.6	104.55	0	11.223	6.5e-3
GW	806	5	104.96	0	10.784	115	0	0	6.5e-3
GW	851	1	0.5196	0	150	0.9443	0	149.44	6.5e-3
GW	852	13	1.3083	0	148.97	23.999	0	119.24	6.5e-3
GW	853	13	24.363	0	118.76	47.053	0	89.029	6.5e-3
GW	854	13	47.417	0	88.552	70.108	0	58.821	6.5e-3
GW	855	13	70.472	0	58.344	93.162	0	28.614	6.5e-3
GW	856	12	93.526	0	28.137	115	0	0	6.5e-3
GW	901	1	0.5196	0	174	0.9044	0	173.42	6.5e-3
GW	902	13	1.2342	0	172.91	21.791	0	141.67	6.5e-3
GW	903	13	22.12	0	141.17	42.677	0	109.93	6.5e-3
GW	904	13	43.007	0	109.42	63.563	0	78.179	6.5e-3
GW	905	13	63.893	0	77.678	84.45	0	46.434	6.5e-3
GW	906	13	84.779	0	45.933	105.34	0	14.689	6.5e-3
GW	907	6	105.67	0	14.188	115	0	0	6.5e-3
GR	1000	3
GE	1
EK
GN	1

SY isA=17pF	'-9456.62	'17p
SY isB=isA/2	'-18913.2	'2*isA
SY isC=25pF	'-6430.5	'25p
SY isD=isC/2	'-12861		'2*isC
SY isE=15pF	'-10717.5	'15p
SY isF=isE/2	'-21435		'2*isE

LD	0	2	1	1	0	0	isA				'17
LD	0	3	1	1	0	0	isB				'17
LD	0	4	1	1	0	0	isC				'25
LD	0	5	1	1	0	0	isA				'17
LD	0	6	1	1	0	0	isB				'17
LD	0	7	1	1	0	0	isC				'25
LD	0	8	1	1	0	0	isA				'17
LD	0	9	1	1	0	0	isD				'25
LD	0	10	1	1	0	0	isC				'25
LD	0	11	1	1	0	0	isA				'17
LD	0	12	1	1	0	0	isD				'25
LD	0	13	1	1	0	0	isC				'25
LD	0	14	1	1	0	0	isC				'25
LD	0	15	1	1	0	0	isA				'17
LD	0	16	1	1	0	0	isC				'25
LD	0	17	1	1	0	0	isC				'25
LD	0	18	1	1	0	0	isC				'25
LD	0	19	1	1	0	0	isC				'25
LD	0	20	1	1	0	0	isE				'15
LD	0	21	1	1	0	0	isD				'25
LD	0	22	1	1	0	0	isC				'25
LD	0	23	1	1	0	0	isC				'25
LD	0	24	1	1	0	0	isC				'25
LD	0	25	1	1	0	0	isE				'15
LD	0	26	1	1	0	0	isF				'15
LD	0	27	1	1	0	0	isC				'25
LD	0	28	1	1	0	0	isC				'25
LD	0	29	1	1	0	0	isC				'25
LD	0	30	1	1	0	0	isC				'25

LD	0	1002	1	1	0	0	isA				'17
LD	0	1003	1	1	0	0	isB				'17
LD	0	1004	1	1	0	0	isC				'25
LD	0	1005	1	1	0	0	isA				'17
LD	0	1006	1	1	0	0	isB				'17
LD	0	1007	1	1	0	0	isC				'25
LD	0	1008	1	1	0	0	isA				'17
LD	0	1009	1	1	0	0	isD				'25
LD	0	1010	1	1	0	0	isC				'25
LD	0	1011	1	1	0	0	isA				'17
LD	0	1012	1	1	0	0	isD				'25
LD	0	1013	1	1	0	0	isC				'25
LD	0	1014	1	1	0	0	isC				'25
LD	0	1015	1	1	0	0	isA				'17
LD	0	1016	1	1	0	0	isC				'25
LD	0	1017	1	1	0	0	isC				'25
LD	0	1018	1	1	0	0	isC				'25
LD	0	1019	1	1	0	0	isC				'25
LD	0	1020	1	1	0	0	isE				'15
LD	0	1021	1	1	0	0	isD				'25
LD	0	1022	1	1	0	0	isC				'25
LD	0	1023	1	1	0	0	isC				'25
LD	0	1024	1	1	0	0	isC				'25
LD	0	1025	1	1	0	0	isE				'15
LD	0	1026	1	1	0	0	isF				'15
LD	0	1027	1	1	0	0	isC				'25
LD	0	1028	1	1	0	0	isC				'25
LD	0	1029	1	1	0	0	isC				'25
LD	0	1030	1	1	0	0	isC				'25

LD	0	2002	1	1	0	0	isA				'17
LD	0	2003	1	1	0	0	isB				'17
LD	0	2004	1	1	0	0	isC				'25
LD	0	2005	1	1	0	0	isA				'17
LD	0	2006	1	1	0	0	isB				'17
LD	0	2007	1	1	0	0	isC				'25
LD	0	2008	1	1	0	0	isA				'17
LD	0	2009	1	1	0	0	isD				'25
LD	0	2010	1	1	0	0	isC				'25
LD	0	2011	1	1	0	0	isA				'17
LD	0	2012	1	1	0	0	isD				'25
LD	0	2013	1	1	0	0	isC				'25
LD	0	2014	1	1	0	0	isC				'25
LD	0	2015	1	1	0	0	isA				'17
LD	0	2016	1	1	0	0	isC				'25
LD	0	2017	1	1	0	0	isC				'25
LD	0	2018	1	1	0	0	isC				'25
LD	0	2019	1	1	0	0	isC				'25
LD	0	2020	1	1	0	0	isE				'15
LD	0	2021	1	1	0	0	isD				'25
LD	0	2022	1	1	0	0	isC				'25
LD	0	2023	1	1	0	0	isC				'25
LD	0	2024	1	1	0	0	isC				'25
LD	0	2025	1	1	0	0	isE				'15
LD	0	2026	1	1	0	0	isF				'15
LD	0	2027	1	1	0	0	isC				'25
LD	0	2028	1	1	0	0	isC				'25
LD	0	2029	1	1	0	0	isC				'25
LD	0	2030	1	1	0	0	isC				'25

EX	0	1	1	0	1	0	0
EX	0	1001	1	0	1	0	0
EX	0	2001	1	0	1	0	0
FR	0	0	0	0	0.99	0
EN
