CM Example file by Dimitry Fedorov, UA3AVR
CE
GW 1 30 0 0 0 0 0 2.86632 0.008
GW 2 30 3.01204 0 0 3.01204 0 2.86632 0.008
GW 1000 1 1 0 1 1 0 1.001 0.00001
GS 0 0 1.0
GE 1
'GN 1
GN 3 0 0 0 13 .005	' Mininec Ground
FR 0 1 0 0 24.9 1
TL 1 1 1000 1 50 2.761445783
TL 2 1 1000 1 50 5.265060241
EX 0 1000 1 0 1.0000 0.0000
EN
