CM Example file by Dimitry Fedorov, UA3AVR
CM (reolution of 1.5 degree (or less) prefered)
CE
GW 1 11 1.50502 0 28 1.50502 0 30.87835 0.008
GW 2 10 1.50502 -2.05061 26.00667 1.50502 0 28 0.008
GW 3 10 1.50502 2.05061 26.00667 1.50502 0 28 0.008
GW 4 11 -1.50502 0 28 -1.50502 0 30.87835 0.008
GW 5 10 -1.50502 -2.05061 26.00667 -1.50502 0 28 0.008
GW 6 10 -1.50502 2.05061 26.00667 -1.50502 0 28 0.008
GM 0 0 0 0 0 0 0 -28 0
GW 1000 1 0 0 1 0 0 1.001 0.00001
GM 0 0 0 0 0 0 0 28 0
GS 0 0 1.0
GE 1
TL 4 1 1000 1 75 2.604819277
TL 1 1 1000 1 75 5.202409639
EX 0 1000 1 0 1.0000 0.0000
GN 2 0 0 0 30 0.001
FR 0 1 0 0 24.9 1
EN
