CM 40-Meter Vertical Dipole with "Hats"
CM by L.B.Cebik
CE
GW 1 15 9.35 0 5 0 9.35 5 0.0052085
GW 2 15 0 9.35 5 -9.35 0 5 0.0052085
GW 3 15 -9.35 0 5 0 -9.35 5 0.0052085
GW 4 15 0 -9.35 5 9.35 0 5 0.0052085
GW 5 11 9.35 0 5 0 0 5 0.0052085
GW 6 11 0 9.35 5 0 0 5 0.0052085
GW 7 11 -9.35 0 5 0 0 5 0.0052085
GW 8 11 0 -9.35 5 0 0 5 0.0052085
GW 9 21 0 0 5 0 0 22 0.0520835
GW 10 11 0 0 22 -9.35 0 22 0.0052085
GW 11 11 0 0 22 0 -9.35 22 0.0052085
GW 12 11 0 0 22 9.35 0 22 0.0052085
GW 13 11 0 0 22 0 9.35 22 0.0052085
GW 14 15 -9.35 0 22 0 -9.35 22 0.0052085
GW 15 15 0 -9.35 22 9.35 0 22 0.0052085
GW 16 15 9.35 0 22 0 9.35 22 0.0052085
GW 17 15 0 9.35 22 -9.35 0 22 0.0052085
GS 0 0 .30479
GE 1
GN 2 0 0 0 13.0 0.005
EX 0 9 11 0 1 0
LD 5 0 0 0 3.0769E7
FR 0 1 0 0 7.05 1
EN
