CM 12ele CQ 433MHz
CE
GW	1	9	0	-0.09	-0.09	0	0.0903	-0.09	3.e-3
GW	2	9	0	0.0903	-0.09	0	0.0903	0.09	3.e-3
GW	3	9	0	0.0903	0.09	0	-0.09	0.09	3.e-3
GW	4	9	0	-0.09	0.09	0	-0.09	-0.09	3.e-3
GW	5	10	-0.104	-0.097	-0.097	-0.104	0.0969	-0.097	3.e-3
GW	6	10	-0.104	0.0969	-0.097	-0.104	0.0969	0.097	3.e-3
GW	7	10	-0.104	0.0969	0.097	-0.104	-0.097	0.097	3.e-3
GW	8	10	-0.104	-0.097	0.097	-0.104	-0.097	-0.097	3.e-3
GW	9	9	0.129	-0.084	-0.084	0.129	0.084	-0.084	3.e-3
GW	10	9	0.129	0.084	-0.084	0.129	0.084	0.084	3.e-3
GW	11	9	0.129	0.084	0.084	0.129	-0.084	0.084	3.e-3
GW	12	9	0.129	-0.084	0.084	0.129	-0.084	-0.084	3.e-3
GW	13	9	0.218	-0.084	-0.084	0.218	0.084	-0.084	3.e-3
GW	14	9	0.218	0.084	-0.084	0.218	0.084	0.084	3.e-3
GW	15	9	0.218	0.084	0.084	0.218	-0.084	0.084	3.e-3
GW	16	9	0.218	-0.084	0.084	0.218	-0.084	-0.084	3.e-3
GW	17	9	0.373	-0.084	-0.084	0.373	0.084	-0.084	3.e-3
GW	18	9	0.373	0.084	-0.084	0.373	0.084	0.084	3.e-3
GW	19	9	0.373	0.084	0.084	0.373	-0.084	0.084	3.e-3
GW	20	9	0.373	-0.084	0.084	0.373	-0.084	-0.084	3.e-3
GW	21	9	0.51	-0.084	-0.084	0.51	0.084	-0.084	3.e-3
GW	22	9	0.51	0.084	-0.084	0.51	0.084	0.084	3.e-3
GW	23	9	0.51	0.084	0.084	0.51	-0.084	0.084	3.e-3
GW	24	9	0.51	-0.084	0.084	0.51	-0.084	-0.084	3.e-3
GW	25	9	0.783	-0.084	-0.084	0.783	0.084	-0.084	3.e-3
GW	26	9	0.783	0.084	-0.084	0.783	0.084	0.084	3.e-3
GW	27	9	0.783	0.084	0.084	0.783	-0.084	0.084	3.e-3
GW	28	9	0.783	-0.084	0.084	0.783	-0.084	-0.084	3.e-3
GW	29	9	1.056	-0.084	-0.084	1.056	0.084	-0.084	3.e-3
GW	30	9	1.056	0.084	-0.084	1.056	0.084	0.084	3.e-3
GW	31	9	1.056	0.084	0.084	1.056	-0.084	0.084	3.e-3
GW	32	9	1.056	-0.084	0.084	1.056	-0.084	-0.084	3.e-3
GW	33	9	1.329	-0.084	-0.084	1.329	0.084	-0.084	3.e-3
GW	34	9	1.329	0.084	-0.084	1.329	0.084	0.084	3.e-3
GW	35	9	1.329	0.084	0.084	1.329	-0.084	0.084	3.e-3
GW	36	9	1.329	-0.084	0.084	1.329	-0.084	-0.084	3.e-3
GW	37	9	1.602	-0.084	-0.084	1.602	0.084	-0.084	3.e-3
GW	38	9	1.602	0.084	-0.084	1.602	0.084	0.084	3.e-3
GW	39	9	1.602	0.084	0.084	1.602	-0.084	0.084	3.e-3
GW	40	9	1.602	-0.084	0.084	1.602	-0.084	-0.084	3.e-3
GW	41	9	1.875	-0.084	-0.084	1.875	0.084	-0.084	3.e-3
GW	42	9	1.875	0.084	-0.084	1.875	0.084	0.084	3.e-3
GW	43	9	1.875	0.084	0.084	1.875	-0.084	0.084	3.e-3
GW	44	9	1.875	-0.084	0.084	1.875	-0.084	-0.084	3.e-3
GW	45	9	2.148	-0.084	-0.084	2.148	0.084	-0.084	3.e-3
GW	46	9	2.148	0.084	-0.084	2.148	0.084	0.084	3.e-3
GW	47	9	2.148	0.084	0.084	2.148	-0.084	0.084	3.e-3
GW	48	9	2.148	-0.084	0.084	2.148	-0.084	-0.084	3.e-3
GE	0
EK
EX	0	2	6	0	1	0
GN	-1
FR	0	1	0	0	433	0
EN
