CM 12ele loop
CE
GW	1	3	0	0.0146	-0.035	0	-0.015	-0.035	1.e-3
GW	2	3	0	-0.015	-0.035	0	-0.035	-0.015	1.e-3
GW	3	3	0	-0.035	-0.015	0	-0.035	0.015	1.e-3
GW	4	3	0	-0.035	0.015	0	-0.015	0.035	1.e-3
GW	5	3	0	-0.015	0.035	0	0.0146	0.035	1.e-3
GW	6	3	0	0.0146	0.035	0	0.0352	0.015	1.e-3
GW	7	3	0	0.0352	0.015	0	0.0352	-0.015	1.e-3
GW	8	3	0	0.0352	-0.015	0	0.0146	-0.035	1.e-3
GW	9	3	-0.034	0.0157	-0.038	-0.034	-0.016	-0.038	1.e-3
GW	10	3	-0.034	-0.016	-0.038	-0.034	-0.038	-0.016	1.e-3
GW	11	3	-0.034	-0.038	-0.016	-0.034	-0.038	0.016	1.e-3
GW	12	3	-0.034	-0.038	0.016	-0.034	-0.016	0.038	1.e-3
GW	13	3	-0.034	-0.016	0.038	-0.034	0.0157	0.038	1.e-3
GW	14	3	-0.034	0.0157	0.038	-0.034	0.0378	0.016	1.e-3
GW	15	3	-0.034	0.0378	0.016	-0.034	0.0378	-0.016	1.e-3
GW	16	3	-0.034	0.0378	-0.016	-0.034	0.0157	-0.038	1.e-3
GW	17	3	0.0429	0.0135	-0.033	0.0429	-0.013	-0.033	1.e-3
GW	18	3	0.0429	-0.013	-0.033	0.0429	-0.033	-0.013	1.e-3
GW	19	3	0.0429	-0.033	-0.013	0.0429	-0.033	0.013	1.e-3
GW	20	3	0.0429	-0.033	0.013	0.0429	-0.013	0.033	1.e-3
GW	21	3	0.0429	-0.013	0.033	0.0429	0.0135	0.033	1.e-3
GW	22	3	0.0429	0.0135	0.033	0.0429	0.0325	0.013	1.e-3
GW	23	3	0.0429	0.0325	0.013	0.0429	0.0325	-0.013	1.e-3
GW	24	3	0.0429	0.0325	-0.013	0.0429	0.0135	-0.033	1.e-3
GW	25	3	0.0726	0.0135	-0.033	0.0726	-0.013	-0.033	1.e-3
GW	26	3	0.0726	-0.013	-0.033	0.0726	-0.033	-0.013	1.e-3
GW	27	3	0.0726	-0.033	-0.013	0.0726	-0.033	0.013	1.e-3
GW	28	3	0.0726	-0.033	0.013	0.0726	-0.013	0.033	1.e-3
GW	29	3	0.0726	-0.013	0.033	0.0726	0.0135	0.033	1.e-3
GW	30	3	0.0726	0.0135	0.033	0.0726	0.0325	0.013	1.e-3
GW	31	3	0.0726	0.0325	0.013	0.0726	0.0325	-0.013	1.e-3
GW	32	3	0.0726	0.0325	-0.013	0.0726	0.0135	-0.033	1.e-3
GW	33	3	0.1254	0.0135	-0.033	0.1254	-0.013	-0.033	1.e-3
GW	34	3	0.1254	-0.013	-0.033	0.1254	-0.033	-0.013	1.e-3
GW	35	3	0.1254	-0.033	-0.013	0.1254	-0.033	0.013	1.e-3
GW	36	3	0.1254	-0.033	0.013	0.1254	-0.013	0.033	1.e-3
GW	37	3	0.1254	-0.013	0.033	0.1254	0.0135	0.033	1.e-3
GW	38	3	0.1254	0.0135	0.033	0.1254	0.0325	0.013	1.e-3
GW	39	3	0.1254	0.0325	0.013	0.1254	0.0325	-0.013	1.e-3
GW	40	3	0.1254	0.0325	-0.013	0.1254	0.0135	-0.033	1.e-3
GW	41	3	0.171	0.0135	-0.033	0.171	-0.013	-0.033	1.e-3
GW	42	3	0.171	-0.013	-0.033	0.171	-0.033	-0.013	1.e-3
GW	43	3	0.171	-0.033	-0.013	0.171	-0.033	0.013	1.e-3
GW	44	3	0.171	-0.033	0.013	0.171	-0.013	0.033	1.e-3
GW	45	3	0.171	-0.013	0.033	0.171	0.0135	0.033	1.e-3
GW	46	3	0.171	0.0135	0.033	0.171	0.0325	0.013	1.e-3
GW	47	3	0.171	0.0325	0.013	0.171	0.0325	-0.013	1.e-3
GW	48	3	0.171	0.0325	-0.013	0.171	0.0135	-0.033	1.e-3
GW	49	3	0.2624	0.0135	-0.033	0.2624	-0.013	-0.033	1.e-3
GW	50	3	0.2624	-0.013	-0.033	0.2624	-0.033	-0.013	1.e-3
GW	51	3	0.2624	-0.033	-0.013	0.2624	-0.033	0.013	1.e-3
GW	52	3	0.2624	-0.033	0.013	0.2624	-0.013	0.033	1.e-3
GW	53	3	0.2624	-0.013	0.033	0.2624	0.0135	0.033	1.e-3
GW	54	3	0.2624	0.0135	0.033	0.2624	0.0325	0.013	1.e-3
GW	55	3	0.2624	0.0325	0.013	0.2624	0.0325	-0.013	1.e-3
GW	56	3	0.2624	0.0325	-0.013	0.2624	0.0135	-0.033	1.e-3
GW	57	3	0.3538	0.0135	-0.033	0.3538	-0.013	-0.033	1.e-3
GW	58	3	0.3538	-0.013	-0.033	0.3538	-0.033	-0.013	1.e-3
GW	59	3	0.3538	-0.033	-0.013	0.3538	-0.033	0.013	1.e-3
GW	60	3	0.3538	-0.033	0.013	0.3538	-0.013	0.033	1.e-3
GW	61	3	0.3538	-0.013	0.033	0.3538	0.0135	0.033	1.e-3
GW	62	3	0.3538	0.0135	0.033	0.3538	0.0325	0.013	1.e-3
GW	63	3	0.3538	0.0325	0.013	0.3538	0.0325	-0.013	1.e-3
GW	64	3	0.3538	0.0325	-0.013	0.3538	0.0135	-0.033	1.e-3
GW	65	3	0.4452	0.0135	-0.033	0.4452	-0.013	-0.033	1.e-3
GW	66	3	0.4452	-0.013	-0.033	0.4452	-0.033	-0.013	1.e-3
GW	67	3	0.4452	-0.033	-0.013	0.4452	-0.033	0.013	1.e-3
GW	68	3	0.4452	-0.033	0.013	0.4452	-0.013	0.033	1.e-3
GW	69	3	0.4452	-0.013	0.033	0.4452	0.0135	0.033	1.e-3
GW	70	3	0.4452	0.0135	0.033	0.4452	0.0325	0.013	1.e-3
GW	71	3	0.4452	0.0325	0.013	0.4452	0.0325	-0.013	1.e-3
GW	72	3	0.4452	0.0325	-0.013	0.4452	0.0135	-0.033	1.e-3
GW	73	3	0.5366	0.0135	-0.033	0.5366	-0.013	-0.033	1.e-3
GW	74	3	0.5366	-0.013	-0.033	0.5366	-0.033	-0.013	1.e-3
GW	75	3	0.5366	-0.033	-0.013	0.5366	-0.033	0.013	1.e-3
GW	76	3	0.5366	-0.033	0.013	0.5366	-0.013	0.033	1.e-3
GW	77	3	0.5366	-0.013	0.033	0.5366	0.0135	0.033	1.e-3
GW	78	3	0.5366	0.0135	0.033	0.5366	0.0325	0.013	1.e-3
GW	79	3	0.5366	0.0325	0.013	0.5366	0.0325	-0.013	1.e-3
GW	80	3	0.5366	0.0325	-0.013	0.5366	0.0135	-0.033	1.e-3
GW	81	3	0.628	0.0135	-0.033	0.628	-0.013	-0.033	1.e-3
GW	82	3	0.628	-0.013	-0.033	0.628	-0.033	-0.013	1.e-3
GW	83	3	0.628	-0.033	-0.013	0.628	-0.033	0.013	1.e-3
GW	84	3	0.628	-0.033	0.013	0.628	-0.013	0.033	1.e-3
GW	85	3	0.628	-0.013	0.033	0.628	0.0135	0.033	1.e-3
GW	86	3	0.628	0.0135	0.033	0.628	0.0325	0.013	1.e-3
GW	87	3	0.628	0.0325	0.013	0.628	0.0325	-0.013	1.e-3
GW	88	3	0.628	0.0325	-0.013	0.628	0.0135	-0.033	1.e-3
GW	89	3	0.7194	0.0135	-0.033	0.7194	-0.013	-0.033	1.e-3
GW	90	3	0.7194	-0.013	-0.033	0.7194	-0.033	-0.013	1.e-3
GW	91	3	0.7194	-0.033	-0.013	0.7194	-0.033	0.013	1.e-3
GW	92	3	0.7194	-0.033	0.013	0.7194	-0.013	0.033	1.e-3
GW	93	3	0.7194	-0.013	0.033	0.7194	0.0135	0.033	1.e-3
GW	94	3	0.7194	0.0135	0.033	0.7194	0.0325	0.013	1.e-3
GW	95	3	0.7194	0.0325	0.013	0.7194	0.0325	-0.013	1.e-3
GW	96	3	0.7194	0.0325	-0.013	0.7194	0.0135	-0.033	1.e-3
GE	0
EX	0	1	2	0	1	0
GN	-1
FR	0	1	0	0	1295	0
EN
