CM wide band 5 el Yagi 144 
CE
GW 1 20 -9.464E-17 -.515 0.0 3.155E-17  .515 0.0  .002
GW 2 19  .32 -.49 0.0  .32  .49 0.0  .002
GW 3 19  .43 -.4675 0.0  .43  .4675 0.0  .002
GW 4 18  .93 -.465 0.0  .93  .465 0.0  .002
GW 5 18  1.535 -.455 0.0  1.535  .455 0.0  .002
GE 0
FR 0 1 0 0 144.5 1
EX 0 2  10  0  1.0 0.0
EN
