CM 1200MHz 15ele
CE
GW	1	19	0	0	-0.051	0	0	0.051	1.e-3
GW	2	18	0.0716	0	-0.049	0.0716	0	0.049	1.e-3
GW	3	18	0.1432	0	-0.049	0.1432	0	0.049	1.e-3
GW	4	17	0.2148	0	-0.049	0.2148	0	0.049	1.e-3
GW	5	17	0.2864	0	-0.047	0.2864	0	0.047	1.e-3
GW	6	17	0.358	0	-0.047	0.358	0	0.047	1.e-3
GW	7	16	0.4296	0	-0.046	0.4296	0	0.046	1.e-3
GW	8	16	0.5012	0	-0.046	0.5012	0	0.046	1.e-3
GW	9	16	0.5728	0	-0.045	0.5728	0	0.045	1.e-3
GW	10	16	0.6444	0	-0.045	0.6444	0	0.045	1.e-3
GW	11	16	0.716	0	-0.045	0.716	0	0.045	1.e-3
GW	12	16	0.7876	0	-0.045	0.7876	0	0.045	1.e-3
GW	13	16	0.8592	0	-0.045	0.8592	0	0.045	1.e-3
GW	14	16	0.9308	0	-0.045	0.9308	0	0.045	1.e-3
GW	15	20	-0.047	0	-0.055	-0.047	0	0.055	1.e-3
GE	0
EK
EX	0	1	10	0	1	0
GN	-1
FR	0	1	0	0	1294.1	0
EN
