CM 3ele (Diamond) Quad  6m
CE
GW 1 11 0.0  1.093 0.0 0.0 0.0 -1.093  .0008
GW 2 11 0.0 0.0 -1.093 0.0 -1.093 0.0  .0008
GW 3 11 0.0 -1.093 0.0 0.0 0.0  1.093  .0008
GW 4 11 0.0 0.0  1.093 0.0  1.093 0.0  .0008
GW 5 11 -1.161  1.118 0.0 -1.161 0.0 -1.118  .0008
GW 6 11 -1.161 0.0 -1.118 -1.161 -1.118 0.0  .0008
GW 7 11 -1.161 -1.118 0.0 -1.161 0.0  1.118  .0008
GW 8 11 -1.161 0.0  1.118 -1.161  1.118 0.0  .0008
GW 9 10  .839  1.043 0.0  .839 0.0 -1.043  .0008
GW 10 10  .839 0.0 -1.043  .839 -1.043 0.0  .0008
GW 11 10  .839 -1.043 0.0  .839 0.0  1.043  .0008
GW 12 10  .839 0.0  1.043  .839  1.043 0.0  .0008
GS 0 0 1.0
GE 0
EX 0 2  1  0  1.0 0.0
EX 0 1  11  0  1.0 0.0
FR 0 1 0 0 50.25 1
RP 0  1  361  1000  90  0  1  1 
EN
