CM 3ele Hentenna Loop 6m
CE
SY len=2.24
GW	1	7	0	-0.5	-.678	0	0.5	-.678	5.e-3
GW	2	7	0	-0.5	len	0	0.5	len	5.e-3
GW	3	5	0	-0.5	-.678	0	-0.5	0	1.e-3
GW	4	16	0	-0.5	0	0	-0.5	len	1.e-3
GW	5	5	0	0.5	-.678	0	0.5	0	1.e-3
GW	6	16	0	0.5	0	0	0.5	len	1.e-3
GW	7	7	0	-0.5	0	0	0.5	0	1.e-3
SY ref=2.315
GW	8	7	-1.57	-0.5	-.692	-1.57	0.5	-.692	5.e-3
GW	9	7	-1.57	-0.5	ref	-1.57	0.5	ref	5.e-3
GW	10	5	-1.57	-0.5	-.692	-1.57	-0.5	0	1.e-3
GW	11	16	-1.57	-0.5	0	-1.57	-0.5	ref	1.e-3
GW	12	5	-1.57	0.5	-.692	-1.57	0.5	0	1.e-3
GW	13	16	-1.57	0.5	0	-1.57	0.5	ref	1.e-3
GW	14	7	-1.57	-0.5	0	-1.57	0.5	0	1.e-3
SY dir=2.205
GW	15	7	1.11	-0.5	-.668	1.11	0.5	-.668	5.e-3
GW	16	7	1.11	-0.5	dir	1.11	0.5	dir	5.e-3
GW	17	5	1.11	-0.5	-.668	1.11	-0.5	0	1.e-3
GW	18	16	1.11	-0.5	0	1.11	-0.5	dir	1.e-3
GW	19	5	1.11	0.5	-.668	1.11	0.5	0	1.e-3
GW	20	16	1.11	0.5	0	1.11	0.5	dir	1.e-3
GW	21	7	1.11	-0.5	0	1.11	0.5	0	1.e-3
GE	0
EX	0	7	4	0	1	0
GN	-1
FR	0	1	0	0	50.2	0
EN
