CM 4ele Delta Loop 6m
CE
SY len=1.066
GW 1 15 0.0  len  .639 0.0 -len  .639  .007
GW 2 15 0.0 -len  .639 0.0 0.0 -1.224  .002
GW 3 15 0.0 0.0 -1.224 0.0  len  .639  .002
SY ref=1.135
GW 4 16 -1.46  ref  .657 -1.46 -ref  .657  .007
GW 5 16 -1.46 -ref  .657 -1.46 0.0 -1.307  .002
GW 6 16 -1.46 0.0 -1.307 -1.46  ref  .657  .002
SY d1=0.974
GW 7 15  1.35  d1  .629  1.35 -d1  .629  .007
GW 8 15  1.35 -d1  .629  1.35 0.0 -1.117  .002
GW 9 15  1.35 0.0 -1.117  1.35  d1  .629  .002
SY d2=0.906
GW 10 15  2.81  d2  .625  2.81 -d2 .625  .007
GW 11 15  2.81 -d2  .625  2.81 0.0 -1.038  .002
GW 12 15  2.81 0.0 -1.038  2.81 d2  .625  .002
GE 0
FR 0 1 0 0 50.2 1
EX 0 3  1  0  1.0 0.0
EX 0 2  15  0  1.0 0.0
EN
