CM 5ele CQ 2m (1.6mm wire, 1 lamda boom)
CE
GW	1	11	0	-0.266	-0.266	0	0.266	-0.266	8.e-4
GW	2	11	0	0.266	-0.266	0	0.266	0.266	8.e-4
GW	3	11	0	0.266	0.266	0	-0.266	0.266	8.e-4
GW	4	11	0	-0.266	0.266	0	-0.266	-0.266	8.e-4
GW	5	11	-0.334	-0.276	-0.276	-0.334	0.276	-0.276	8.e-4
GW	6	11	-0.334	0.276	-0.276	-0.334	0.276	0.276	8.e-4
GW	7	11	-0.334	0.276	0.276	-0.334	-0.276	0.276	8.e-4
GW	8	11	-0.334	-0.276	0.276	-0.334	-0.276	-0.276	8.e-4
GW	9	11	0.426	-0.262	-0.262	0.426	0.262	-0.262	8.e-4
GW	10	11	0.426	0.262	-0.262	0.426	0.262	0.262	8.e-4
GW	11	11	0.426	0.262	0.262	0.426	-0.262	0.262	8.e-4
GW	12	11	0.426	-0.262	0.262	0.426	-0.262	-0.262	8.e-4
GW	13	10	1.062	-0.257	-0.257	1.062	0.257	-0.257	8.e-4
GW	14	10	1.062	0.257	-0.257	1.062	0.257	0.257	8.e-4
GW	15	10	1.062	0.257	0.257	1.062	-0.257	0.257	8.e-4
GW	16	10	1.062	-0.257	0.257	1.062	-0.257	-0.257	8.e-4
GW	17	10	1.666	-0.254	-0.254	1.666	0.254	-0.254	8.e-4
GW	18	10	1.666	0.254	-0.254	1.666	0.254	0.254	8.e-4
GW	19	10	1.666	0.254	0.254	1.666	-0.254	0.254	8.e-4
GW	20	10	1.666	-0.254	0.254	1.666	-0.254	-0.254	8.e-4
GE	0
EX	0	2	6	0	1	0
GN	-1
FR	0	1	0	0	145	0
EN
