CM 5ele Twin Delta Loop 2m
CE
SY len=0.677
SY dz=0.334
GW	1	15	0	-len	dz	0	0	0.01	5.e-3
GW	2	15	0	0	0.01	0	len	dz	5.e-3
GW	3	13	0	len	dz	0	len	-dz	5.e-3
GW	4	15	0	len	-dz	0	0	-0.01	5.e-3
GW	5	15	0	0	-0.01	0	-len	-dz	5.e-3
GW	6	13	0	-len	-dz	0	-len	dz	5.e-3

GW	7	1	0	0	0.01	0	0	-0.01	5.e-3
GW	8	16	-0.464	-0.718	0.359	-0.464	0	0.01	5.e-3
GW	9	16	-0.464	0	0.01	-0.464	0.718	0.359	5.e-3
GW	10	14	-0.464	0.718	0.359	-0.464	0.718	-0.359	5.e-3
GW	11	16	-0.464	0.718	-0.359	-0.464	0	-0.01	5.e-3
GW	12	16	-0.464	0	-0.01	-0.464	-0.718	-0.359	5.e-3
GW	13	14	-0.464	-0.718	-0.359	-0.464	-0.718	0.359	5.e-3
GW	14	1	-0.464	0	0.01	-0.464	0	-0.01	5.e-3
GW	15	14	0.516	-0.615	0.308	0.516	0	0.01	5.e-3
GW	16	14	0.516	0	0.01	0.516	0.615	0.308	5.e-3

GW	17	12	0.516	0.615	0.308	0.516	0.615	-0.307	5.e-3
GW	18	14	0.516	0.615	-0.307	0.516	0	-0.01	5.e-3
GW	19	14	0.516	0	-0.01	0.516	-0.615	-0.307	5.e-3
GW	20	12	0.516	-0.615	-0.307	0.516	-0.615	0.308	5.e-3
GW	21	1	0.516	0	0.01	0.516	0	-0.01	5.e-3
GW	22	15	0.838	-0.659	0.33	0.838	0	0.01	5.e-3
GW	23	15	0.838	0	0.01	0.838	0.659	0.33	5.e-3
GW	24	13	0.838	0.659	0.33	0.838	0.659	-0.329	5.e-3

GW	25	15	0.838	0.659	-0.329	0.838	0	-0.01	5.e-3
GW	26	15	0.838	0	-0.01	0.838	-0.659	-0.329	5.e-3
GW	27	13	0.838	-0.659	-0.329	0.838	-0.659	0.33	5.e-3
GW	28	1	0.838	0	0.01	0.838	0	-0.01	5.e-3
GW	29	15	1.186	-0.653	0.327	1.186	0	0.01	5.e-3
GW	30	15	1.186	0	0.01	1.186	0.653	0.327	5.e-3
GW	31	13	1.186	0.653	0.327	1.186	0.653	-0.326	5.e-3
GW	32	15	1.186	0.653	-0.326	1.186	0	-0.01	5.e-3
GW	33	15	1.186	0	-0.01	1.186	-0.653	-0.326	5.e-3
GW	34	13	1.186	-0.653	-0.326	1.186	-0.653	0.327	5.e-3
GW	35	1	1.186	0	0.01	1.186	0	-0.01	5.e-3

GE	0
EK
GN	-1
FR	0	1	0	0	145	0
EX	0	7	1	0	1	0
EN
