CM Wide Band 6el 6m
CE
SY HGH=0
GW 1 19 0.0 -1.39  HGH 0.0  1.39  HGH  .007
GW 2 20 -1.023 -1.48  HGH -1.023  1.48  HGH  .007
GW 3 19  .56 -1.372  HGH  .56  1.372  HGH  .007
GW 4 18  1.683 -1.327  HGH  1.683  1.327  HGH  .007
GW 5 18  2.959 -1.332  HGH  2.959  1.332  HGH  .007
GW 6 18  4.172 -1.277  HGH  4.172  1.277  HGH  .007
GE 0
FR 0 1 0 0 50.5 1
EX 0 1  10  0  1.0 0.0
EN
