CM 7ele YAGI 6m (7.25m boom)
CE
SY hgh=0
GW 1 19 0.0 -1.387  hgh 0.0  1.387  hgh  .007
GW 2 20 -1.05 -1.465  hgh -1.05  1.465  hgh  .007
GW 3 19  .58 -1.383  hgh  .58  1.383  hgh  .007
GW 4 19  1.8 -1.35  hgh  1.8  1.35  hgh  .007
GW 5 18  3.27 -1.315  hgh  3.27  1.315  hgh  .007
GW 6 18  4.73 -1.305  hgh  4.73  1.305  hgh  .007
GW 7 18  6.2 -1.303  hgh  6.2  1.303  hgh  .007
GE 0
EX 0 1  10  0  1.0 0.0
FR 0 1 0 0 50.25 1
EN
