CM GW4CQT
CE
GW	1	11	0	-0.284	3.716	0	0.2841	3.716	4.e-3
GW	2	11	0	0.2841	3.716	0	0.2841	4.2841	4.e-3
GW	3	11	0	0.2841	4.2841	0	-0.284	4.2841	4.e-3
GW	4	11	0	-0.284	4.2841	0	-0.284	3.716	4.e-3

sy len=0.274
GW	5	11	0.483	-len	3.731		0.483	len	3.731	4.e-3
GW	6	11	0.483	len	3.731		0.483	len	4.2686	4.e-3
GW	7	11	0.483	len	4.2686	0.483	-len	4.2686	4.e-3
GW	8	11	0.483	-len	4.2686	0.483	-len	3.731	4.e-3

GW	9	10	0.915	-0.251	3.749		0.915	0.2508	3.749	4.e-3
GW	10	10	0.915	0.2508	3.749		0.915	0.2508	4.2508	4.e-3
GW	11	10	0.915	0.2508	4.2508	0.915	-0.251	4.2508	4.e-3
GW	12	10	0.915	-0.251	4.2508	0.915	-0.251	3.749	4.e-3
GW	13	10	1.449	-0.251	3.749		1.449	0.2508	3.749	4.e-3
GW	14	10	1.449	0.2508	3.749		1.449	0.2508	4.2508	4.e-3
GW	15	10	1.449	0.2508	4.2508	1.449	-0.251	4.2508	4.e-3
GW	16	10	1.449	-0.251	4.2508	1.449	-0.251	3.749	4.e-3
GW	17	10	1.847	-0.251	3.749		1.847	0.2508	3.749	4.e-3
GW	18	10	1.847	0.2508	3.749		1.847	0.2508	4.2508	4.e-3
GW	19	10	1.847	0.2508	4.2508	1.847	-0.251	4.2508	4.e-3
GW	20	10	1.847	-0.251	4.2508	1.847	-0.251	3.749	4.e-3
GW	21	10	2.431	-0.251	3.749		2.431	0.2508	3.749	4.e-3
GW	22	10	2.431	0.2508	3.749		2.431	0.2508	4.2508	4.e-3
GW	23	10	2.431	0.2508	4.2508	2.431	-0.251	4.2508	4.e-3
GW	24	10	2.431	-0.251	4.2508	2.431	-0.251	3.749	4.e-3
GW	25	10	2.939	-0.251	3.749		2.939	0.2508	3.749	4.e-3
GW	26	10	2.939	0.2508	3.749		2.939	0.2508	4.2508	4.e-3
GW	27	10	2.939	0.2508	4.2508	2.939	-0.251	4.2508	4.e-3
GW	28	10	2.939	-0.251	4.2508	2.939	-0.251	3.749	4.e-3
GE	0
LD	5	0	0	0	25000000	0
EX	0	5	6	0	1	0
GN	2	0	0	0	13	5.e-3
FR	0	1	0	0	144.3	0
EN
