CM Wide Band 8ele YAGI 2m (3.7m boom)
CE
GW 1 19 0.0 0.0  19.5155 0.0 0.0  20.4845  .0025
GW 2 20 -.488 0.0  19.49 -.488 0.0  20.51  .0025
GW 3 19  .244 0.0  19.519  .244 0.0  20.481  .0025
GW 4 18  .731 0.0  19.535  .731 0.0  20.465  .0025
GW 5 18  1.393 0.0  19.544  1.393 0.0  20.456  .0025
GW 6 18  1.996 0.0  19.547  1.996 0.0  20.453  .0025
GW 7 18  2.595 0.0  19.552  2.595 0.0  20.448  .0025
GW 8 17  3.197 0.0  19.565  3.197 0.0  20.435  .0025
GE 0
GN 2 0 0 0 13 .005
FR 0 1 0 0 145 1
EX 0 1  10  0  1.0 0.0
EN
