CM Wide Band 8ele YAGI 6m  (7.4m short boom)
CE
SY hgh=0	'20
GW 1 19 0.0 -1.395  hgh 0.0  1.395  hgh  .007
GW 2 20 -1.2 -1.475  hgh -1.2  1.475  hgh  .007
GW 3 19  .5 -1.39  hgh  .5  1.39  hgh  .007
GW 4 19  1.5 -1.34  hgh  1.5  1.34  hgh  .007
GW 5 18  2.6 -1.315  hgh  2.6  1.315  hgh  .007
GW 6 18  3.8 -1.31  hgh  3.8  1.31  hgh  .007
GW 7 18  5.0 -1.295  hgh  5.0  1.295  hgh  .007
GW 8 18  6.2 -1.265  hgh  6.2  1.265  hgh  .007
GE 0
'GN 2 0 0 0 13 .005
FR 0 1 0 0 50.5 1
EX 0 1  10  0  1.0 0.0
EN
