CM Wide Band 8ele YAGI 6m (9.3m boom)
CE
SY hgh=0	'20
GW 1 14 0.0 -1.  hgh 0.0  1.0  hgh  .007
GW 2 3 0.0  1.0  hgh 0.0  1.43  hgh  .005
GW 3 3 0.0 -1.43  hgh 0.0 -1.  hgh  .005
GW 4 14 -1.133 -1.  hgh -1.133  1.0  hgh  .007
GW 5 4 -1.133  1.0  hgh -1.133  1.498  hgh  .005
GW 6 4 -1.133 -1.498  hgh -1.133 -1.  hgh  .005
GW 7 14  .514 -1.  hgh  .514  1.0  hgh  .007
GW 8 3  .514  1.0  hgh  .514  1.409  hgh  .005
GW 9 3  .514 -1.409  hgh  .514 -1.  hgh  .005
GW 10 14  1.743 -1.  hgh  1.743  1.0  hgh  .007
GW 11 3  1.743  1.0  hgh  1.743  1.364  hgh  .005
GW 12 3  1.743 -1.364  hgh  1.743 -1.  hgh  .005
GW 13 14  3.567 -1.  hgh  3.567  1.0  hgh  .007
GW 14 3  3.567  1.0  hgh  3.567  1.335  hgh  .005
GW 15 3  3.567 -1.335  hgh  3.567 -1.  hgh  .005
GW 16 14  4.963 -1.  hgh  4.963  1.0  hgh  .007
GW 17 3  4.963  1.0  hgh  4.963  1.329  hgh  .005
GW 18 3  4.963 -1.329  hgh  4.963 -1.  hgh  .005
GW 19 14  6.557 -1.  hgh  6.557  1.0  hgh  .007
GW 20 3  6.557  1.0  hgh  6.557  1.339  hgh  .005
GW 21 3  6.557 -1.339  hgh  6.557 -1.  hgh  .005
GW 22 14  8.167 -1.  hgh  8.167  1.0  hgh  .007
GW 23 2  8.167  1.0  hgh  8.167  1.294  hgh  .005
GW 24 2  8.167 -1.294  hgh  8.167 -1.  hgh  .005
GE 0
'GN 2 0 0 0 13 .005
FR 0 1 0 0 50.5 1
EX 0 1  7  0  1.0 0.0
EN
