CM Crosspol 144
CE
GW 1 20 -.411 0.0  2.478 -.411 0.0  3.522  .002
GW 2 10 0.0 0.0  2.512 0.0  .01  2.99  .002
GW 3 18  .246 0.0  2.537  .246 0.0  3.463  .002
GW 4 20 -.411 -.522  3.0 -.411  .522  3.0  .002
GW 5 10 0.0 -.488  3.0 0.0 -.01  3.01  .002
GW 6 18  .246 -.463  3.0  .246  .463  3.0  .002
GW 7 10 0.0 -.01  3.01 0.0 0.0  3.488  .002
GW 8 10 0.0  .01  2.99 0.0  .488  3.0  .002
GW 9 1 0.0 -.01  3.01 0.0  .01  2.99  .002
GS 0 0 1.0
GE 0
EX 0 9  1  0  1.0 0.0
FR 0 1 0 0 145 1
RP 0  1  361  1000  90  0  1  1 
EN
