CM 5el144-DK7ZB
CE
GW 1 21  0.0 -.5195 0 0  .5195 0.0  .005
GW 2 19  .265 -.481 0.0  .265  .481 0.0  .005
GW 3 18  .675 -.459 0.0  .675  .459 0.0  .005
GW 4 18  1.16 -.45 0.0  1.16  .45 0.0  .005
GE 0
FR 0 1 0 0 145 1
EX 0 2  10  0  1.0 0.0
EN
