CM  F9FT - 13 for 144 MC by uu4jcr
CE
GW 1 20 0.0 -.5139  5.0 0.0  .5139  5.0  .002
GW 2 19  .26 -.48  5.01  .26  .48  5.01  .00225
GW 3 19  .44 -.4889  5.0  .44  .4889  5.0  .002
GW 4 19  .69 -.4864  5.0  .69  .4864  5.0  .002
GW 5 19  1.095 -.4754  5.0  1.095  .4754  5.0  .002
GW 6 19  1.51 -.4709  5.0  1.51  .4709  5.0  .002
GW 7 18  1.925 -.4619  5.0  1.925  .4619  5.0  .002
GW 8 18  2.34 -.4554  5.0  2.34  .4554  5.0  .002
GW 9 18  2.755 -.4524  5.0  2.755  .4524  5.0  .002
GW 10 18  3.585 -.4464  5.0  3.585  .4464  5.0  .002
GW 11 18  4.0 -.4464  5.0  4.0  .4464  5.0  .002
GW 12 18  4.415 -.4464  5.0  4.415  .4464  5.0  .002
GW 13 18  3.17  .4494  5.0  3.17 -.4494  5.0  .002
GW 14 1  .26 -.48  4.99  .26 -.48  5.01  .00225
GW 15 19  .26 -.48  4.99  .26  .48  4.9875  .00225
GW 16 1  .26  .48  4.9875  .26  .48  5.01  .00225
GE 1
GN 2 0 0 0 13  0.005 0.0 0.0
FR 0 1 0 0 145 1
EX 0 2  10  0  1.0 0.0
EN
