CM F9FT 21 el 432 MHz
CE
GW 1 10 0.0  .17275 0.0 0.0 -.17275 0.0  .002
GW 2 5  .139  .155204 -.012072  .139  .009441 -.012142  .00225
GW 3 9  .139  .155204  .010428  .139 -.155796  .012677  .00225
GW 4 1  .139 -.155796  .012677  .139 -.155796 -.009823  .00225
GW 5 1  .139  .155204  .010428  .139  .155204 -.012072  .00225
GW 6 5  .139 -.01 -.012142  .139 -.155796 -.009823  .00225
GW 7 1  .139 -.01 -.012142  .139  .009441 -.012142  .00225
GW 8 9  .201  .152486 0.0  .201 -.158014 0.0  .002
GW 9 9  .274  .15025 0.0  .274 -.15025 0.0  .002
GW 10 9  .437  .14525 0.0  .437 -.14525 0.0  .002
GW 11 9  .62  .14525 0.0  .62 -.14525 0.0  .002
GW 12 9  .82  .14275 0.0  .82 -.14275 0.0  .002
GW 13 9  1.055  .14275 0.0  1.055 -.14275 0.0  .002
GW 14 9  1.325  .14275 0.0  1.325 -.14275 0.0  .002
GW 15 8  1.595  .13775 0.0  1.595 -.13775 0.0  .002
GW 16 8  1.865  .13775 0.0  1.865 -.13775 0.0  .002
GW 17 8  2.135  .13775 0.0  2.135 -.13775 0.0  .002
GW 18 8  2.405  .13775 0.0  2.405 -.13775 0.0  .002
GW 19 8  2.675  .13775 0.0  2.675 -.13775 0.0  .002
GW 20 8  2.945  .13525 0.0  2.945 -.13525 0.0  .002
GW 21 8  3.215  .13525 0.0  3.215 -.13525 0.0  .002
GW 22 8  3.485  .13525 0.0  3.485 -.13525 0.0  .002
GW 23 8  3.755  .13275 0.0  3.755 -.13275 0.0  .002
GW 24 8  4.025  .13275 0.0  4.025 -.13275 0.0  .002
GW 25 8  4.295  .13025 0.0  4.295 -.13025 0.0  .002
GW 26 8  4.565  .13025 0.0  4.565 -.13025 0.0  .002
GS 0 0 1.0
GE 0
EX 0 7  1  0  1.0 0.0
FR 0 1 0 0 432.2 1
RP 0  1  361  1000  90  0  1  1 
EN
