CM mirror by DL2KQ
CE
GW	1	2	0	9.4e-3	-0.023	0	-9.e-3	-0.023	1.e-3
GW	2	2	0	-9.e-3	-0.023	0	-0.023	-9.e-3	1.e-3
GW	3	2	0	-0.023	-9.e-3	0	-0.023	9.e-3	1.e-3
GW	4	2	0	-0.023	9.e-3	0	-9.e-3	0.023	1.e-3
GW	5	2	0	-9.e-3	0.023	0	9.4e-3	0.023	1.e-3
GW	6	2	0	9.4e-3	0.023	0	0.0226	9.e-3	1.e-3
GW	7	2	0	0.0226	9.e-3	0	0.0226	-9.e-3	1.e-3
GW	8	2	0	0.0226	-9.e-3	0	9.4e-3	-0.023	1.e-3
GW	9	16	0.169	0.1313	-0.317	0.169	-0.131	-0.317	1.e-3
GW	10	16	0.169	-0.131	-0.317	0.169	-0.317	-0.131	1.e-3
GW	11	16	0.169	-0.317	-0.131	0.169	-0.317	0.131	1.e-3
GW	12	16	0.169	-0.317	0.131	0.169	-0.131	0.317	1.e-3
GW	13	16	0.169	-0.131	0.317	0.169	0.1313	0.317	1.e-3
GW	14	16	0.169	0.1313	0.317	0.169	0.3169	0.131	1.e-3
GW	15	16	0.169	0.3169	0.131	0.169	0.3169	-0.131	1.e-3
GW	16	16	0.169	0.3169	-0.131	0.169	0.1313	-0.317	1.e-3
GW	17	15	0.144	0.1219	-0.294	0.144	-0.122	-0.294	1.e-3
GW	18	15	0.144	-0.122	-0.294	0.144	-0.294	-0.122	1.e-3
GW	19	15	0.144	-0.294	-0.122	0.144	-0.294	0.122	1.e-3
GW	20	15	0.144	-0.294	0.122	0.144	-0.122	0.294	1.e-3
GW	21	15	0.144	-0.122	0.294	0.144	0.1219	0.294	1.e-3
GW	22	15	0.144	0.1219	0.294	0.144	0.2942	0.122	1.e-3
GW	23	15	0.144	0.2942	0.122	0.144	0.2942	-0.122	1.e-3
GW	24	15	0.144	0.2942	-0.122	0.144	0.1219	-0.294	1.e-3
GW	25	14	0.121	0.1125	-0.272	0.121	-0.113	-0.272	1.e-3
GW	26	14	0.121	-0.113	-0.272	0.121	-0.272	-0.112	1.e-3
GW	27	14	0.121	-0.272	-0.112	0.121	-0.272	0.113	1.e-3
GW	28	14	0.121	-0.272	0.113	0.121	-0.113	0.272	1.e-3
GW	29	14	0.121	-0.113	0.272	0.121	0.1125	0.272	1.e-3
GW	30	14	0.121	0.1125	0.272	0.121	0.2716	0.113	1.e-3
GW	31	14	0.121	0.2716	0.113	0.121	0.2716	-0.112	1.e-3
GW	32	14	0.121	0.2716	-0.112	0.121	0.1125	-0.272	1.e-3
GW	33	12	0.1	0.1031	-0.249	0.1	-0.103	-0.249	1.e-3
GW	34	12	0.1	-0.103	-0.249	0.1	-0.249	-0.103	1.e-3
GW	35	12	0.1	-0.249	-0.103	0.1	-0.249	0.103	1.e-3
GW	36	12	0.1	-0.249	0.103	0.1	-0.103	0.249	1.e-3
GW	37	12	0.1	-0.103	0.249	0.1	0.1031	0.249	1.e-3
GW	38	12	0.1	0.1031	0.249	0.1	0.249	0.103	1.e-3
GW	39	12	0.1	0.249	0.103	0.1	0.249	-0.103	1.e-3
GW	40	12	0.1	0.249	-0.103	0.1	0.1031	-0.249	1.e-3
GW	41	11	0.081	0.0938	-0.226	0.081	-0.094	-0.226	1.e-3
GW	42	11	0.081	-0.094	-0.226	0.081	-0.226	-0.094	1.e-3
GW	43	11	0.081	-0.226	-0.094	0.081	-0.226	0.094	1.e-3
GW	44	11	0.081	-0.226	0.094	0.081	-0.094	0.226	1.e-3
GW	45	11	0.081	-0.094	0.226	0.081	0.0938	0.226	1.e-3
GW	46	11	0.081	0.0938	0.226	0.081	0.2263	0.094	1.e-3
GW	47	11	0.081	0.2263	0.094	0.081	0.2263	-0.094	1.e-3
GW	48	11	0.081	0.2263	-0.094	0.081	0.0938	-0.226	1.e-3
GW	49	10	0.064	0.0844	-0.204	0.064	-0.084	-0.204	1.e-3
GW	50	10	0.064	-0.084	-0.204	0.064	-0.204	-0.084	1.e-3
GW	51	10	0.064	-0.204	-0.084	0.064	-0.204	0.084	1.e-3
GW	52	10	0.064	-0.204	0.084	0.064	-0.084	0.204	1.e-3
GW	53	10	0.064	-0.084	0.204	0.064	0.0844	0.204	1.e-3
GW	54	10	0.064	0.0844	0.204	0.064	0.2037	0.084	1.e-3
GW	55	10	0.064	0.2037	0.084	0.064	0.2037	-0.084	1.e-3
GW	56	10	0.064	0.2037	-0.084	0.064	0.0844	-0.204	1.e-3
GW	57	9	0.049	0.075	-0.181	0.049	-0.075	-0.181	1.e-3
GW	58	9	0.049	-0.075	-0.181	0.049	-0.181	-0.075	1.e-3
GW	59	9	0.049	-0.181	-0.075	0.049	-0.181	0.075	1.e-3
GW	60	9	0.049	-0.181	0.075	0.049	-0.075	0.181	1.e-3
GW	61	9	0.049	-0.075	0.181	0.049	0.075	0.181	1.e-3
GW	62	9	0.049	0.075	0.181	0.049	0.1811	0.075	1.e-3
GW	63	9	0.049	0.1811	0.075	0.049	0.1811	-0.075	1.e-3
GW	64	9	0.049	0.1811	-0.075	0.049	0.075	-0.181	1.e-3
GW	65	8	0.036	0.0656	-0.158	0.036	-0.066	-0.158	1.e-3
GW	66	8	0.036	-0.066	-0.158	0.036	-0.158	-0.066	1.e-3
GW	67	8	0.036	-0.158	-0.066	0.036	-0.158	0.066	1.e-3
GW	68	8	0.036	-0.158	0.066	0.036	-0.066	0.158	1.e-3
GW	69	8	0.036	-0.066	0.158	0.036	0.0656	0.158	1.e-3
GW	70	8	0.036	0.0656	0.158	0.036	0.1584	0.066	1.e-3
GW	71	8	0.036	0.1584	0.066	0.036	0.1584	-0.066	1.e-3
GW	72	8	0.036	0.1584	-0.066	0.036	0.0656	-0.158	1.e-3
GW	73	7	0.025	0.0563	-0.136	0.025	-0.056	-0.136	1.e-3
GW	74	7	0.025	-0.056	-0.136	0.025	-0.136	-0.056	1.e-3
GW	75	7	0.025	-0.136	-0.056	0.025	-0.136	0.056	1.e-3
GW	76	7	0.025	-0.136	0.056	0.025	-0.056	0.136	1.e-3
GW	77	7	0.025	-0.056	0.136	0.025	0.0563	0.136	1.e-3
GW	78	7	0.025	0.0563	0.136	0.025	0.1358	0.056	1.e-3
GW	79	7	0.025	0.1358	0.056	0.025	0.1358	-0.056	1.e-3
GW	80	7	0.025	0.1358	-0.056	0.025	0.0563	-0.136	1.e-3
GW	81	6	0.016	0.0469	-0.113	0.016	-0.047	-0.113	1.e-3
GW	82	6	0.016	-0.047	-0.113	0.016	-0.113	-0.047	1.e-3
GW	83	6	0.016	-0.113	-0.047	0.016	-0.113	0.047	1.e-3
GW	84	6	0.016	-0.113	0.047	0.016	-0.047	0.113	1.e-3
GW	85	6	0.016	-0.047	0.113	0.016	0.0469	0.113	1.e-3
GW	86	6	0.016	0.0469	0.113	0.016	0.1132	0.047	1.e-3
GW	87	6	0.016	0.1132	0.047	0.016	0.1132	-0.047	1.e-3
GW	88	6	0.016	0.1132	-0.047	0.016	0.0469	-0.113	1.e-3
GW	89	5	9.e-3	0.0375	-0.091	9.e-3	-0.038	-0.091	1.e-3
GW	90	5	9.e-3	-0.038	-0.091	9.e-3	-0.091	-0.037	1.e-3
GW	91	5	9.e-3	-0.091	-0.037	9.e-3	-0.091	0.038	1.e-3
GW	92	5	9.e-3	-0.091	0.038	9.e-3	-0.038	0.091	1.e-3
GW	93	5	9.e-3	-0.038	0.091	9.e-3	0.0375	0.091	1.e-3
GW	94	5	9.e-3	0.0375	0.091	9.e-3	0.0905	0.038	1.e-3
GW	95	5	9.e-3	0.0905	0.038	9.e-3	0.0905	-0.037	1.e-3
GW	96	5	9.e-3	0.0905	-0.037	9.e-3	0.0375	-0.091	1.e-3
GW	97	4	1.e-3	0.0281	-0.068	1.e-3	-0.028	-0.068	1.e-3
GW	98	4	1.e-3	-0.028	-0.068	1.e-3	-0.068	-0.028	1.e-3
GW	99	4	1.e-3	-0.068	-0.028	1.e-3	-0.068	0.028	1.e-3
GW	100	4	1.e-3	-0.068	0.028	1.e-3	-0.028	0.068	1.e-3
GW	101	4	1.e-3	-0.028	0.068	1.e-3	0.0281	0.068	1.e-3
GW	102	4	1.e-3	0.0281	0.068	1.e-3	0.0679	0.028	1.e-3
GW	103	4	1.e-3	0.0679	0.028	1.e-3	0.0679	-0.028	1.e-3
GW	104	4	1.e-3	0.0679	-0.028	1.e-3	0.0281	-0.068	1.e-3
GW	105	3	2.e-3	0.0188	-0.045	2.e-3	-0.019	-0.045	1.e-3
GW	106	3	2.e-3	-0.019	-0.045	2.e-3	-0.045	-0.019	1.e-3
GW	107	3	2.e-3	-0.045	-0.019	2.e-3	-0.045	0.019	1.e-3
GW	108	3	2.e-3	-0.045	0.019	2.e-3	-0.019	0.045	1.e-3
GW	109	3	2.e-3	-0.019	0.045	2.e-3	0.0188	0.045	1.e-3
GW	110	3	2.e-3	0.0188	0.045	2.e-3	0.0453	0.019	1.e-3
GW	111	3	2.e-3	0.0453	0.019	2.e-3	0.0453	-0.019	1.e-3
GW	112	3	2.e-3	0.0453	-0.019	2.e-3	0.0188	-0.045	1.e-3
GW	113	22	0.4	0.1875	-0.453	0.4	-0.188	-0.453	1.e-3
GW	114	22	0.4	-0.188	-0.453	0.4	-0.453	-0.187	1.e-3
GW	115	22	0.4	-0.453	-0.187	0.4	-0.453	0.188	1.e-3
GW	116	22	0.4	-0.453	0.188	0.4	-0.188	0.453	1.e-3
GW	117	22	0.4	-0.188	0.453	0.4	0.1875	0.453	1.e-3
GW	118	22	0.4	0.1875	0.453	0.4	0.4527	0.188	1.e-3
GW	119	22	0.4	0.4527	0.188	0.4	0.4527	-0.187	1.e-3
GW	120	22	0.4	0.4527	-0.187	0.4	0.1875	-0.453	1.e-3
GW	121	21	0.324	0.1781	-0.43	0.324	-0.178	-0.43	1.e-3
GW	122	21	0.324	-0.178	-0.43	0.324	-0.43	-0.178	1.e-3
GW	123	21	0.324	-0.43	-0.178	0.324	-0.43	0.178	1.e-3
GW	124	21	0.324	-0.43	0.178	0.324	-0.178	0.43	1.e-3
GW	125	21	0.324	-0.178	0.43	0.324	0.1781	0.43	1.e-3
GW	126	21	0.324	0.1781	0.43	0.324	0.43	0.178	1.e-3
GW	127	21	0.324	0.43	0.178	0.324	0.43	-0.178	1.e-3
GW	128	21	0.324	0.43	-0.178	0.324	0.1781	-0.43	1.e-3
GW	129	20	0.289	0.1688	-0.407	0.289	-0.169	-0.407	1.e-3
GW	130	20	0.289	-0.169	-0.407	0.289	-0.407	-0.169	1.e-3
GW	131	20	0.289	-0.407	-0.169	0.289	-0.407	0.169	1.e-3
GW	132	20	0.289	-0.407	0.169	0.289	-0.169	0.407	1.e-3
GW	133	20	0.289	-0.169	0.407	0.289	0.1688	0.407	1.e-3
GW	134	20	0.289	0.1688	0.407	0.289	0.4074	0.169	1.e-3
GW	135	20	0.289	0.4074	0.169	0.289	0.4074	-0.169	1.e-3
GW	136	20	0.289	0.4074	-0.169	0.289	0.1688	-0.407	1.e-3
GW	137	19	0.256	0.1594	-0.385	0.256	-0.159	-0.385	1.e-3
GW	138	19	0.256	-0.159	-0.385	0.256	-0.385	-0.159	1.e-3
GW	139	19	0.256	-0.385	-0.159	0.256	-0.385	0.159	1.e-3
GW	140	19	0.256	-0.385	0.159	0.256	-0.159	0.385	1.e-3
GW	141	19	0.256	-0.159	0.385	0.256	0.1594	0.385	1.e-3
GW	142	19	0.256	0.1594	0.385	0.256	0.3848	0.159	1.e-3
GW	143	19	0.256	0.3848	0.159	0.256	0.3848	-0.159	1.e-3
GW	144	19	0.256	0.3848	-0.159	0.256	0.1594	-0.385	1.e-3
GW	145	18	0.225	0.15	-0.362	0.225	-0.15	-0.362	1.e-3
GW	146	18	0.225	-0.15	-0.362	0.225	-0.362	-0.15	1.e-3
GW	147	18	0.225	-0.362	-0.15	0.225	-0.362	0.15	1.e-3
GW	148	18	0.225	-0.362	0.15	0.225	-0.15	0.362	1.e-3
GW	149	18	0.225	-0.15	0.362	0.225	0.15	0.362	1.e-3
GW	150	18	0.225	0.15	0.362	0.225	0.3621	0.15	1.e-3
GW	151	18	0.225	0.3621	0.15	0.225	0.3621	-0.15	1.e-3
GW	152	18	0.225	0.3621	-0.15	0.225	0.15	-0.362	1.e-3
GW	153	17	0.196	0.1406	-0.339	0.196	-0.141	-0.339	1.e-3
GW	154	17	0.196	-0.141	-0.339	0.196	-0.339	-0.141	1.e-3
GW	155	17	0.196	-0.339	-0.141	0.196	-0.339	0.141	1.e-3
GW	156	17	0.196	-0.339	0.141	0.196	-0.141	0.339	1.e-3
GW	157	17	0.196	-0.141	0.339	0.196	0.1406	0.339	1.e-3
GW	158	17	0.196	0.1406	0.339	0.196	0.3395	0.141	1.e-3
GW	159	17	0.196	0.3395	0.141	0.196	0.3395	-0.141	1.e-3
GW	160	17	0.196	0.3395	-0.141	0.196	0.1406	-0.339	1.e-3
GW	161	2	0	-0.023	9.e-3	2.e-3	-0.045	0.019	1.e-3
GW	162	2	2.e-3	-0.045	0.019	1.e-3	-0.068	0.028	1.e-3
GW	163	2	1.e-3	-0.068	0.028	9.e-3	-0.091	0.038	1.e-3
GW	164	2	9.e-3	-0.091	0.038	0.016	-0.113	0.047	1.e-3
GW	165	2	0	-0.023	-9.e-3	2.e-3	-0.045	-0.019	1.e-3
GW	166	2	2.e-3	-0.045	-0.019	1.e-3	-0.068	-0.028	1.e-3
GW	167	2	1.e-3	-0.068	-0.028	9.e-3	-0.091	-0.037	1.e-3
GW	168	2	9.e-3	-0.091	-0.037	0.016	-0.113	-0.047	1.e-3
GW	169	2	0	-9.e-3	-0.023	2.e-3	-0.019	-0.045	1.e-3
GW	170	2	2.e-3	-0.019	-0.045	1.e-3	-0.028	-0.068	1.e-3
GW	171	2	1.e-3	-0.028	-0.068	9.e-3	-0.038	-0.091	1.e-3
GW	172	2	9.e-3	-0.038	-0.091	0.016	-0.047	-0.113	1.e-3
GW	173	2	0	9.4e-3	-0.023	2.e-3	0.0188	-0.045	1.e-3
GW	174	2	2.e-3	0.0188	-0.045	1.e-3	0.0281	-0.068	1.e-3
GW	175	2	1.e-3	0.0281	-0.068	9.e-3	0.0375	-0.091	1.e-3
GW	176	2	9.e-3	0.0375	-0.091	0.016	0.0469	-0.113	1.e-3
GW	177	2	0	0.0226	-9.e-3	2.e-3	0.0453	-0.019	1.e-3
GW	178	2	2.e-3	0.0453	-0.019	1.e-3	0.0679	-0.028	1.e-3
GW	179	2	1.e-3	0.0679	-0.028	9.e-3	0.0905	-0.037	1.e-3
GW	180	2	9.e-3	0.0905	-0.037	0.016	0.1132	-0.047	1.e-3
GW	181	2	0	0.0226	9.e-3	2.e-3	0.0453	0.019	1.e-3
GW	182	2	2.e-3	0.0453	0.019	1.e-3	0.0679	0.028	1.e-3
GW	183	2	1.e-3	0.0679	0.028	9.e-3	0.0905	0.038	1.e-3
GW	184	2	9.e-3	0.0905	0.038	0.016	0.1132	0.047	1.e-3
GW	185	2	0	9.4e-3	0.023	2.e-3	0.0188	0.045	1.e-3
GW	186	2	2.e-3	0.0188	0.045	1.e-3	0.0281	0.068	1.e-3
GW	187	2	1.e-3	0.0281	0.068	9.e-3	0.0375	0.091	1.e-3
GW	188	2	9.e-3	0.0375	0.091	0.016	0.0469	0.113	1.e-3
GW	189	2	0	-9.e-3	0.023	2.e-3	-0.019	0.045	1.e-3
GW	190	2	2.e-3	-0.019	0.045	1.e-3	-0.028	0.068	1.e-3
GW	191	2	1.e-3	-0.028	0.068	9.e-3	-0.038	0.091	1.e-3
GW	192	2	9.e-3	-0.038	0.091	0.016	-0.047	0.113	1.e-3
GW	193	2	0.016	-0.047	0.113	0.025	-0.056	0.136	1.e-3
GW	194	2	0.025	-0.056	0.136	0.036	-0.066	0.158	1.e-3
GW	195	2	0.036	-0.066	0.158	0.049	-0.075	0.181	1.e-3
GW	196	2	0.049	-0.075	0.181	0.064	-0.084	0.204	1.e-3
GW	197	2	0.064	-0.084	0.204	0.081	-0.094	0.226	1.e-3
GW	198	2	0.016	-0.113	0.047	0.025	-0.136	0.056	1.e-3
GW	199	2	0.025	-0.136	0.056	0.036	-0.158	0.066	1.e-3
GW	200	2	0.036	-0.158	0.066	0.049	-0.181	0.075	1.e-3
GW	201	2	0.049	-0.181	0.075	0.064	-0.204	0.084	1.e-3
GW	202	2	0.064	-0.204	0.084	0.081	-0.226	0.094	1.e-3
GW	203	2	0.016	-0.113	-0.047	0.025	-0.136	-0.056	1.e-3
GW	204	2	0.025	-0.136	-0.056	0.036	-0.158	-0.066	1.e-3
GW	205	2	0.036	-0.158	-0.066	0.049	-0.181	-0.075	1.e-3
GW	206	2	0.049	-0.181	-0.075	0.064	-0.204	-0.084	1.e-3
GW	207	2	0.064	-0.204	-0.084	0.081	-0.226	-0.094	1.e-3
GW	208	2	0.016	0.0469	0.113	0.025	0.0563	0.136	1.e-3
GW	209	2	0.025	0.0563	0.136	0.036	0.0656	0.158	1.e-3
GW	210	2	0.036	0.0656	0.158	0.049	0.075	0.181	1.e-3
GW	211	2	0.049	0.075	0.181	0.064	0.0844	0.204	1.e-3
GW	212	2	0.064	0.0844	0.204	0.081	0.0938	0.226	1.e-3
GW	213	2	0.081	0.0938	0.226	0.1	0.1031	0.249	1.e-3
GW	214	2	0.016	0.1132	0.047	0.025	0.1358	0.056	1.e-3
GW	215	2	0.025	0.1358	0.056	0.036	0.1584	0.066	1.e-3
GW	216	2	0.036	0.1584	0.066	0.049	0.1811	0.075	1.e-3
GW	217	2	0.049	0.1811	0.075	0.064	0.2037	0.084	1.e-3
GW	218	2	0.064	0.2037	0.084	0.081	0.2263	0.094	1.e-3
GW	219	2	0.016	0.1132	-0.047	0.025	0.1358	-0.056	1.e-3
GW	220	2	0.025	0.1358	-0.056	0.036	0.1584	-0.066	1.e-3
GW	221	2	0.036	0.1584	-0.066	0.049	0.1811	-0.075	1.e-3
GW	222	2	0.049	0.1811	-0.075	0.064	0.2037	-0.084	1.e-3
GW	223	2	0.064	0.2037	-0.084	0.081	0.2263	-0.094	1.e-3
GW	224	2	0.016	0.0469	-0.113	0.025	0.0563	-0.136	1.e-3
GW	225	2	0.025	0.0563	-0.136	0.036	0.0656	-0.158	1.e-3
GW	226	2	0.036	0.0656	-0.158	0.049	0.075	-0.181	1.e-3
GW	227	2	0.049	0.075	-0.181	0.064	0.0844	-0.204	1.e-3
GW	228	2	0.064	0.0844	-0.204	0.081	0.0938	-0.226	1.e-3
GW	229	2	0.016	-0.047	-0.113	0.025	-0.056	-0.136	1.e-3
GW	230	2	0.025	-0.056	-0.136	0.036	-0.066	-0.158	1.e-3
GW	231	2	0.036	-0.066	-0.158	0.049	-0.075	-0.181	1.e-3
GW	232	2	0.049	-0.075	-0.181	0.064	-0.084	-0.204	1.e-3
GW	233	2	0.064	-0.084	-0.204	0.081	-0.094	-0.226	1.e-3
GW	234	2	0.081	-0.094	-0.226	0.1	-0.103	-0.249	1.e-3
GW	235	2	0.081	-0.226	0.094	0.1	-0.249	0.103	1.e-3
GW	236	2	0.1	-0.249	0.103	0.121	-0.272	0.113	1.e-3
GW	237	2	0.121	-0.272	0.113	0.144	-0.294	0.122	1.e-3
GW	238	3	0.144	-0.294	0.122	0.169	-0.317	0.131	1.e-3
GW	239	3	0.169	-0.317	0.131	0.196	-0.339	0.141	1.e-3
GW	240	3	0.196	-0.339	0.141	0.225	-0.362	0.15	1.e-3
GW	241	3	0.225	-0.362	0.15	0.256	-0.385	0.159	1.e-3
GW	242	3	0.256	-0.385	0.159	0.289	-0.407	0.169	1.e-3
GW	243	3	0.289	-0.407	0.169	0.324	-0.43	0.178	1.e-3
GW	244	5	0.324	-0.43	0.178	0.4	-0.453	0.188	1.e-3
GW	245	2	0.081	-0.094	0.226	0.1	-0.103	0.249	1.e-3
GW	246	2	0.1	-0.103	0.249	0.121	-0.113	0.272	1.e-3
GW	247	2	0.121	-0.113	0.272	0.144	-0.122	0.294	1.e-3
GW	248	3	0.144	-0.122	0.294	0.169	-0.131	0.317	1.e-3
GW	249	3	0.169	-0.131	0.317	0.196	-0.141	0.339	1.e-3
GW	250	3	0.196	-0.141	0.339	0.225	-0.15	0.362	1.e-3
GW	251	3	0.225	-0.15	0.362	0.256	-0.159	0.385	1.e-3
GW	252	3	0.256	-0.159	0.385	0.289	-0.169	0.407	1.e-3
GW	253	3	0.289	-0.169	0.407	0.324	-0.178	0.43	1.e-3
GW	254	5	0.324	-0.178	0.43	0.4	-0.188	0.453	1.e-3
GW	255	2	0.1	0.1031	0.249	0.121	0.1125	0.272	1.e-3
GW	256	2	0.121	0.1125	0.272	0.144	0.1219	0.294	1.e-3
GW	257	3	0.144	0.1219	0.294	0.169	0.1313	0.317	1.e-3
GW	258	3	0.169	0.1313	0.317	0.196	0.1406	0.339	1.e-3
GW	259	3	0.196	0.1406	0.339	0.225	0.15	0.362	1.e-3
GW	260	3	0.225	0.15	0.362	0.256	0.1594	0.385	1.e-3
GW	261	3	0.256	0.1594	0.385	0.289	0.1688	0.407	1.e-3
GW	262	3	0.289	0.1688	0.407	0.324	0.1781	0.43	1.e-3
GW	263	5	0.324	0.1781	0.43	0.4	0.1875	0.453	1.e-3
GW	264	2	0.081	0.2263	0.094	0.1	0.249	0.103	1.e-3
GW	265	2	0.1	0.249	0.103	0.121	0.2716	0.113	1.e-3
GW	266	2	0.121	0.2716	0.113	0.144	0.2942	0.122	1.e-3
GW	267	3	0.144	0.2942	0.122	0.169	0.3169	0.131	1.e-3
GW	268	3	0.169	0.3169	0.131	0.196	0.3395	0.141	1.e-3
GW	269	3	0.196	0.3395	0.141	0.225	0.3621	0.15	1.e-3
GW	270	3	0.225	0.3621	0.15	0.256	0.3848	0.159	1.e-3
GW	271	3	0.256	0.3848	0.159	0.289	0.4074	0.169	1.e-3
GW	272	3	0.289	0.4074	0.169	0.324	0.43	0.178	1.e-3
GW	273	5	0.324	0.43	0.178	0.4	0.4527	0.188	1.e-3
GW	274	2	0.081	-0.226	-0.094	0.1	-0.249	-0.103	1.e-3
GW	275	2	0.1	-0.249	-0.103	0.121	-0.272	-0.112	1.e-3
GW	276	2	0.121	-0.272	-0.112	0.144	-0.294	-0.122	1.e-3
GW	277	3	0.144	-0.294	-0.122	0.169	-0.317	-0.131	1.e-3
GW	278	3	0.169	-0.317	-0.131	0.196	-0.339	-0.141	1.e-3
GW	279	3	0.196	-0.339	-0.141	0.225	-0.362	-0.15	1.e-3
GW	280	3	0.225	-0.362	-0.15	0.256	-0.385	-0.159	1.e-3
GW	281	3	0.256	-0.385	-0.159	0.289	-0.407	-0.169	1.e-3
GW	282	3	0.289	-0.407	-0.169	0.324	-0.43	-0.178	1.e-3
GW	283	5	0.324	-0.43	-0.178	0.4	-0.453	-0.187	1.e-3
GW	284	2	0.081	0.2263	-0.094	0.1	0.249	-0.103	1.e-3
GW	285	2	0.1	0.249	-0.103	0.121	0.2716	-0.112	1.e-3
GW	286	2	0.121	0.2716	-0.112	0.144	0.2942	-0.122	1.e-3
GW	287	3	0.144	0.2942	-0.122	0.169	0.3169	-0.131	1.e-3
GW	288	3	0.169	0.3169	-0.131	0.196	0.3395	-0.141	1.e-3
GW	289	3	0.196	0.3395	-0.141	0.225	0.3621	-0.15	1.e-3
GW	290	3	0.225	0.3621	-0.15	0.256	0.3848	-0.159	1.e-3
GW	291	3	0.256	0.3848	-0.159	0.289	0.4074	-0.169	1.e-3
GW	292	3	0.289	0.4074	-0.169	0.324	0.43	-0.178	1.e-3
GW	293	5	0.324	0.43	-0.178	0.4	0.4527	-0.187	1.e-3
GW	294	2	0.081	0.0938	-0.226	0.1	0.1031	-0.249	1.e-3
GW	295	2	0.1	0.1031	-0.249	0.121	0.1125	-0.272	1.e-3
GW	296	2	0.121	0.1125	-0.272	0.144	0.1219	-0.294	1.e-3
GW	297	3	0.144	0.1219	-0.294	0.169	0.1313	-0.317	1.e-3
GW	298	3	0.169	0.1313	-0.317	0.196	0.1406	-0.339	1.e-3
GW	299	3	0.196	0.1406	-0.339	0.225	0.15	-0.362	1.e-3
GW	300	3	0.225	0.15	-0.362	0.256	0.1594	-0.385	1.e-3
GW	301	3	0.256	0.1594	-0.385	0.289	0.1688	-0.407	1.e-3
GW	302	3	0.289	0.1688	-0.407	0.324	0.1781	-0.43	1.e-3
GW	303	5	0.324	0.1781	-0.43	0.4	0.1875	-0.453	1.e-3
GW	304	2	0.1	-0.103	-0.249	0.121	-0.113	-0.272	1.e-3
GW	305	2	0.121	-0.113	-0.272	0.144	-0.122	-0.294	1.e-3
GW	306	3	0.144	-0.122	-0.294	0.169	-0.131	-0.317	1.e-3
GW	307	3	0.169	-0.131	-0.317	0.196	-0.141	-0.339	1.e-3
GW	308	3	0.196	-0.141	-0.339	0.225	-0.15	-0.362	1.e-3
GW	309	3	0.225	-0.15	-0.362	0.256	-0.159	-0.385	1.e-3
GW	310	3	0.256	-0.159	-0.385	0.289	-0.169	-0.407	1.e-3
GW	311	3	0.289	-0.169	-0.407	0.324	-0.178	-0.43	1.e-3
GW	312	5	0.324	-0.178	-0.43	0.4	-0.188	-0.453	1.e-3
GW	313	21	0.26	0.175	0	0.26	-0.17	0	1.e-3
GE	0
EX	0	313	11	0	1	0
GN	-1
FR	0	1	0	0	435	0
EN
