CM USN STAR GP VHF  135...152 MHz
CE
GW	1	16	0	0	20.e-3	0	0	1.254	8.e-3
GW	2	4	0	0	1.37	0.385	0	1.31	5.e-3
GW	3	4	0	0	1.254	0.385	0	1.31	5.e-3
GW	4	16	0	0	1.37	0	0	2.6	5.e-3
GW	5	16	0	0	20.e-3	0.867		0	0.867		6.e-3
GW	6	16	0	0	20.e-3	-0.867	0	0.867		6.e-3
GW	7	16	0	0	0	0.865		0	-0.865	6.e-3
GW	8	16	0	0	0	-0.865	0	-0.865	6.e-3
GW	9	1	0	0	20.e-3	0	0	0	8.e-3
GE	0
EK
LD	1	9	1	1	0	71.8nH	7.0pF
LD	5	0	0	0	25000000	0
EX	0	9	1	0	1	0
GN	-1
FR	0	1	0	0	144.1	0
EN
