CM  VP2e 40m, (MiniNec too optimistic)
CE
GW 1 41 0.0 0.0  7.0 0.0 -19.93086  .70948  .0008
GW 2 41 0.0 0.0  7.0 0.0  19.94764  .762891  .0008
GW 3 41  5.0 0.0  7.0  5.0 -19.93086  .70948  .0008
GW 4 41  5.0 0.0  7.0  5.0  19.94764  .762891  .0008
GE 1
LD 5 0 0 0 57471264

GN 2 0 0 0 13  0.005	' Average
'GN 2 0 0 0 20  0.0303	' Very good

sy pha=60	' Phase in degrees
EX 0 2  21  0  1*cos(pha) 1*sin(pha)
EX 0 4  21  0  1 0.0

FR 0 1 0 0 7.05 1
EN
