CM 
CE
GW 1 6 0.0 0.0 0.0 0.0 0.0  9.982  .019
GW 2 6  5.0 0.0 0.0  5.0 0.0  9.982  .019
GS 0 0 1.0
GE 1
EX 0 1  1  0 -.1106692 -.5693438
EX 0 2  1  0 -.2111656 -.3514386
GN 1
FR 0 1 0 0 7.15 1
RP 0  181  1  1000  90 0 -1  1 
EN
