CM 402_306 146/50 MHz
CE
GW	1	32	0	-60		0	0	60		0	0.35
GW	2	29	24	-56		0	24	56		0	0.35
GW	3	27	53	-53		0	53	53		0	0.35
GW	4	11	20.5	-20.375	0	20.5	20.375	0	0.1875
GW	5	11	28.75	-18.5		0	28.75	18.5		0	0.1875
GW	6	9	41.25	-17.5		0	41.25	17.5		0	0.1875
GW	7	8	60	-15.75	0	60	15.75		0	0.1875
GS	0	0	0.0254		' All in in.
GE	0
LD	5	1	0	0	25000000.2	0
LD	5	2	0	0	25000000.2	0
LD	5	3	0	0	25000000.2	0
LD	5	4	0	0	25000000.2	0
LD	5	5	0	0	25000000.2	0
LD	5	6	0	0	25000000.2	0
LD	5	7	0	0	25000000.2	0
GN	-1

' Use for 2 m 
FR	0	1	0	0	146	0
EX	0	5	6	0	1	0

' Use for 6 m
'FR	0	1	0	0	50	0
'EX	0	2	15	0	1	0

EN
