CM      LPA published by DC8CE in DUBUS 2/83
CM            10elements     190mm
CM      Model taking into account boom 6mm/1mm
CE
GW             1       7       0     -62     3.5       0      -3     3.5     1.5
GW             2       1       0      -3     3.5       0       3    -3.5     1.5
GW             3       7       0       3    -3.5       0      62    -3.5     1.5
GW             4       7      38   -52.5    -3.5      38      -3    -3.5     1.5
GW             5       1      38      -3    -3.5      38       3     3.5     1.5
GW             6       7      38       3     3.5      38    52.5     3.5     1.5
GW             7       7      69     -44     3.5      69      -3     3.5     1.5
GW             8       1      69      -3     3.5      69       3    -3.5     1.5
GW             9       7      69       3    -3.5      69      44    -3.5     1.5
GW            10       6      97   -36.5    -3.5      97      -3    -3.5     1.5
GW            11       1      97      -3    -3.5      97       3     3.5     1.5
GW            12       6      97       3     3.5      97    36.5     3.5     1.5
GW            13       6   118.5   -30.5     3.5   118.5      -3     3.5     1.5
GW            14       1   118.5      -3     3.5   118.5       3    -3.5     1.5
GW            15       6   118.5       3    -3.5   118.5    30.5    -3.5     1.5
GW            16       6     138   -25.5    -3.5     138      -3    -3.5     1.5
GW            17       1     138      -3    -3.5     138       3     3.5     1.5
GW            18       6     138       3     3.5     138    25.5     3.5     1.5
GW            19       5     154     -21     3.5     154      -3     3.5     1.5
GW            20       1     154      -3     3.5     154       3    -3.5     1.5
GW            21       5     154       3    -3.5     154      21    -3.5     1.5
GW            22       4     168   -17.5    -3.5     168      -3    -3.5     1.5
GW            23       1     168      -3    -3.5     168       3     3.5     1.5
GW            24       4     168       3     3.5     168    17.5     3.5     1.5
GW            25       2   179.5     -15     3.5   179.5      -3     3.5     1.5
GW            26       1   179.5      -3     3.5   179.5       3    -3.5     1.5
GW            27       2   179.5       3    -3.5   179.5      15    -3.5     1.5
GW            28       3  189.5     -12    -3.5   189.5      -3    -3.5     1
GW            29       3   189.5      -3    -3.5   189.5       3     3.5     1
GW            30       3   189.5       3     3.5   189.5      12     3.5     1
GM             0       0       0     -90     0.0       0       0     0.0       0
GS             0       0   0.001
GE             0
EK
EX             0      29       2       0     1.0       0
PQ            -1
PT            -1
TL             2       1       5       1   -68.5       0       0       0       0       0
TL             5       1       8       1   -68.5       0       0       0       0       0
TL             8       1      11       1   -68.5       0       0       0       0       0
TL            11       1      14       1   -68.5       0       0       0       0       0
TL            14       1      17       1   -68.5       0       0       0       0       0
TL            17       1      20       1   -68.5       0       0       0       0       0
TL            20       1      23       1   -68.5       0       0       0       0       0
TL            23       1      26       1   -68.5       0       0       0       0       0
TL            26       1      29       2   -68.5       0       0       0       0       0
FR             0      25      0       0  1100     100       0       0
RP             0       1       1    1500     0.0       0       6      45       0
EN
