CM      EZ2309
CM      29elementen       236 mm
CM           0.945    0.07           dragerbuis          4.00mm
CE
GW               1      14          0        -58         2.40       0      -2    2.40     1.2
GW               2       1          0         -2         2.40       0       2   -2.40     1.2
GW               3      14          0          2        -2.40       0      58   -2.40     1.2
GW               4      13         16        -55        -2.40      16      -2   -2.40     1.2
GW               5       1         16         -2        -2.40      16       2    2.40     1.2
GW               6      13         16          2         2.40      16      55    2.40     1.2
GW               7      13         32        -52         2.40      32      -2    2.40     1.2
GW               8       1         32         -2         2.40      32       2   -2.40     1.2
GW               9      13         32          2        -2.40      32      52   -2.40     1.2
GW              10      12         46        -49        -2.40      46      -2   -2.40     1.2
GW              11       1         46         -2        -2.40      46       2    2.40     1.2
GW              12      12         46          2         2.40      46      49    2.40     1.2
GW              13      11         60        -46         2.40      60      -2    2.40     1.2
GW              14       1         60         -2         2.40      60       2   -2.40     1.2
GW              15      11         60          2        -2.40      60      46   -2.40     1.2
GW              16      11         73        -44        -2.40      73      -2   -2.40     1.2
GW              17       1         73         -2        -2.40      73       2    2.40     1.2
GW              18      11         73          2         2.40      73      44    2.40     1.2
GW              19      10         85        -41         2.40      85      -2    2.40     1.2
GW              20       1         85         -2         2.40      85       2   -2.40     1.2
GW              21      10         85          2        -2.40      85      41   -2.40     1.2
GW              22       9         97        -39        -2.40      97      -2   -2.40     1.2
GW              23       1         97         -2        -2.40      97       2    2.40     1.2
GW              24       9         97          2         2.40      97      39    2.40     1.2
GW              25       9        107        -37         2.40     107      -2    2.40     1.2
GW              26       1        107         -2         2.40     107       2   -2.40     1.2
GW              27       9        107          2        -2.40     107      37   -2.40     1.2
GW              28       8        118        -35        -2.40     118      -2   -2.40     1.2
GW              29       1        118         -2        -2.40     118       2    2.40     1.2
GW              30       8        118          2         2.40     118      35    2.40     1.2
GW              31       8        127        -33         2.40     127      -2    2.40     1.2
GW              32       1        127         -2         2.40     127       2   -2.40     1.2
GW              33       8        127          2        -2.40     127      33   -2.40     1.2
GW              34       7        137        -31        -2.40     137      -2   -2.40     1.2
GW              35       1        137         -2        -2.40     137       2    2.40     1.2
GW              36       7        137          2         2.40     137      31    2.40     1.2
GW              37       7        145        -29         2.40     145      -2    2.40     1.2
GW              38       1        145         -2         2.40     145       2   -2.40     1.2
GW              39       7        145          2        -2.40     145      29   -2.40     1.2
GW              40       7        154        -28        -2.40     154      -2   -2.40     1.2
GW              41       1        154         -2        -2.40     154       2    2.40     1.2
GW              42       7        154          2         2.40     154      28    2.40     1.2
GW              43       6        161        -26         2.40     161      -2    2.40     1.2
GW              44       1        161         -2         2.40     161       2   -2.40     1.2
GW              45       6        161          2        -2.40     161      26   -2.40     1.2
GW              46       6        169        -25        -2.40     169      -2   -2.40     0.8
GW              47       1        169         -2        -2.40     169       2    2.40     0.8
GW              48       6        169          2         2.40     169      25    2.40     0.8
GW              49       5        176        -23         2.40     176      -2    2.40     0.8
GW              50       1        176         -2         2.40     176       2   -2.40     0.8
GW              51       5        176          2        -2.40     176      23   -2.40     0.8
GW              52       5        182        -22        -2.40     182      -2   -2.40     0.8
GW              53       1        182         -2        -2.40     182       2    2.40     0.8
GW              54       5        182          2         2.40     182      22    2.40     0.8
GW              55       5        188        -21         2.40     188      -2    2.40     0.8
GW              56       1        188         -2         2.40     188       2   -2.40     0.8
GW              57       5        188          2        -2.40     188      21   -2.40     0.8
GW              58       5        194        -20        -2.40     194      -2   -2.40     0.8
GW              59       1        194         -2        -2.40     194       2    2.40     0.8
GW              60       5        194          2         2.40     194      20    2.40     0.8
GW              61       4        200        -19         2.40     200      -2    2.40     0.8
GW              62       1        200         -2         2.40     200       2   -2.40     0.8
GW              63       4        200          2        -2.40     200      19   -2.40     0.8
GW              64       4        205        -18        -2.40     205      -2   -2.40     0.8
GW              65       1        205         -2        -2.40     205       2    2.40     0.8
GW              66       4        205          2         2.40     205      18    2.40     0.8
GW              67       4        210        -17         2.40     210      -2    2.40     0.8
GW              68       1        210         -2         2.40     210       2   -2.40     0.8
GW              69       4        210          2        -2.40     210      17   -2.40     0.8
GW              70       4        215        -16        -2.40     215      -2   -2.40     0.8
GW              71       1        215         -2        -2.40     215       2    2.40     0.8
GW              72       4        215          2         2.40     215      16    2.40     0.8
GW              73       3        219        -15         2.40     219      -2    2.40     0.8
GW              74       1        219         -2         2.40     219       2   -2.40     0.8
GW              75       3        219          2        -2.40     219      15   -2.40     0.8
GW              76       3        223        -14        -2.40     223      -2   -2.40     0.8
GW              77       1        223         -2        -2.40     223       2    2.40     0.8
GW              78       3        223          2         2.40     223      14    2.40     0.8
GW              79       3        227        -13         2.40     227      -2    2.40     0.8
GW              80       1        227         -2         2.40     227       2   -2.40     0.8
GW              81       3        227          2        -2.40     227      13   -2.40     0.8
GW              82       3        231        -13        -2.40     231      -2   -2.40     0.8
GW              83       1        231         -2        -2.40     231       2    2.40     0.8
GW              84       3        231          2         2.40     231      13    2.40     0.8
GW              85       3        234        -12         2.40     234      -2    2.40     0.8
GW              86       1        234         -2         2.40     234       2   -2.40     0.8
GW              87       3        234          2        -2.40     234      12   -2.40     0.8
GW              88       1        239         -2        -2.40     239       2   -2.40       1
GS               0       0      0.001
GE               0       0          0
LD               0      88          1          0     3.00E-09       0
LD               5       1          1         14     1.56E+07
LD               5       3          1         14     1.56E+07
LD               5       4          1         13     1.56E+07
LD               5       6          1         13     1.56E+07
LD               5       7          1         13     1.56E+07
LD               5       9          1         13     1.56E+07
LD               5      10          1         12     1.56E+07
LD               5      12          1         12     1.56E+07
LD               5      13          1         11     1.56E+07
LD               5      15          1         11     1.56E+07
LD               5      16          1         11     1.56E+07
LD               5      18          1         11     1.56E+07
LD               5      19          1         10     1.56E+07
LD               5      21          1         10     1.56E+07
LD               5      22          1          9     1.56E+07
LD               5      24          1          9     1.56E+07
LD               5      25          1          9     1.56E+07
LD               5      27          1          9     1.56E+07
LD               5      28          1          8     1.56E+07
LD               5      30          1          8     1.56E+07
LD               5      31          1          8     1.56E+07
LD               5      33          1          8     1.56E+07
LD               5      34          1          7     1.56E+07
LD               5      36          1          7     1.56E+07
LD               5      37          1          7     1.56E+07
LD               5      39          1          7     1.56E+07
LD               5      40          1          7     1.56E+07
LD               5      42          1          7     1.56E+07
LD               5      43          1          6     1.56E+07
LD               5      45          1          6     1.56E+07
LD               5      46          1          6     1.56E+07
LD               5      48          1          6     1.56E+07
LD               5      49          1          5     1.56E+07
LD               5      51          1          5     1.56E+07
LD               5      52          1          5     1.56E+07
LD               5      54          1          5     1.56E+07
LD               5      55          1          5     1.56E+07
LD               5      57          1          5     1.56E+07
LD               5      58          1          5     1.56E+07
LD               5      60          1          5     1.56E+07
LD               5      61          1          4     1.56E+07
LD               5      63          1          4     1.56E+07
LD               5      64          1          4     1.56E+07
LD               5      66          1          4     1.56E+07
LD               5      67          1          4     1.56E+07
LD               5      69          1          4     1.56E+07
LD               5      70          1          4     1.56E+07
LD               5      72          1          4     1.56E+07
LD               5      73          1          3     1.56E+07
LD               5      75          1          3     1.56E+07
LD               5      76          1          3     1.56E+07
LD               5      78          1          3     1.56E+07
LD               5      79          1          3     1.56E+07
LD               5      81          1          3     1.56E+07
LD               5      82          1          3     1.56E+07
LD               5      84          1          3     1.56E+07
LD               5      85          1          3     1.56E+07
LD               5      87          1          3     1.56E+07
TL              88       1         86          1       -75.00       0       0       0       0       0
TL               2       1          5          1       -75.00       0       0       0       0       0
TL               5       1          8          1       -75.00       0       0       0       0       0
TL               8       1         11          1       -75.00       0       0       0       0       0
TL              11       1         14          1       -75.00       0       0       0       0       0
TL              14       1         17          1       -75.00       0       0       0       0       0
TL              17       1         20          1       -75.00       0       0       0       0       0
TL              20       1         23          1       -75.00       0       0       0       0       0
TL              23       1         26          1       -75.00       0       0       0       0       0
TL              26       1         29          1       -75.00       0       0       0       0       0
TL              29       1         32          1       -75.00       0       0       0       0       0
TL              32       1         35          1       -75.00       0       0       0       0       0
TL              35       1         38          1       -75.00       0       0       0       0       0
TL              38       1         41          1       -75.00       0       0       0       0       0
TL              41       1         44          1       -75.00       0       0       0       0       0
TL              44       1         47          1       -75.00       0       0       0       0       0
TL              47       1         50          1       -75.00       0       0       0       0       0
TL              50       1         53          1       -75.00       0       0       0       0       0
TL              53       1         56          1       -75.00       0       0       0       0       0
TL              56       1         59          1       -75.00       0       0       0       0       0
TL              59       1         62          1       -75.00       0       0       0       0       0
TL              62       1         65          1       -75.00       0       0       0       0       0
TL              65       1         68          1       -75.00       0       0       0       0       0
TL              68       1         71          1       -75.00       0       0       0       0       0
TL              71       1         74          1       -75.00       0       0       0       0       0
TL              74       1         77          1       -75.00       0       0       0       0       0
TL              77       1         80          1       -75.00       0       0       0       0       0
TL              80       1         83          1       -75.00       0       0       0       0       0
TL              83       1         86          1       -75.00       0       0       0       0       0
EX               0      88          1          0         1.00       0
EK
'pq -1
'pt -1
'FR               0      25          0          0      1200.00     100
FR               0       1          0          0      2000     100
RP               0       1          1       1500         0.00       0       6      45       0       0
EN
