CM 2ele CQ 20m (75 ohms)
CE
GW 1 11 0.0 -2.6805  17.3195 0.0  2.6805  17.3195  .0008
GW 2 11 0.0  2.6805  17.3195 0.0  2.6805  22.6805  .0008
GW 3 11 0.0  2.6805  22.6805 0.0 -2.6805  22.6805  .0008
GW 4 11 0.0 -2.6805  22.6805 0.0 -2.6805  17.3195  .0008
GW 5 11 -2.59 -2.79875  17.20125 -2.59  2.79875  17.20125  .0008
GW 6 11 -2.59  2.79875  17.20125 -2.59  2.79875  22.79875  .0008
GW 7 11 -2.59  2.79875  22.79875 -2.59 -2.79875  22.79875  .0008
GW 8 11 -2.59 -2.79875  22.79875 -2.59 -2.79875  17.20125  .0008
GE 1
EX 0 1  6  0  1.0 0.0
GN 2 0 0 0 13  0.005 0.0 0.0
FR 0 1 0 0 14.05 1
EN
