CM 2el  Delta20
CE
GW 1 14  2.5 0 16.156  2.5  3.695318  10.0  .0008
GW 2 14  2.5 0 16.156  2.5 -3.695318  10.0  .0008
GW 3 14  2.5  3.695318  10.0  2.5 -3.695318  10.0  .0008
GW 4 14 -.5 0 16.134 -.5  3.920194  10.0  .0008
GW 5 14 -.5 0 16.134 -.5 -3.920194  10.0  .0008
GW 6 15 -.5  3.920194  10.0 -.5 -3.920194  10.0  .0008
GE 1
EX 0 1  1  0 1 0
EX 0 2  1  0 -1 0
GN 2 0 0 0 13  0.005 0.0 0.0
FR 0 1 0 0 14.15 1
EN
