CM W1HXU
CM forw: 70, 0 ; back:-70, 0
CE
GW 1 109 0 1.425 7.7 0 -1.375 7.7 8.e-4
GW 2 109 0 1.325 6.3 0 -1.275 6.3 8.e-4
GW 3 7 0 -1.375 7.7 0 -1.375 7.625 8.e-4
GW 28 69 0 -1.375 7.625 0 -1.375 6.3 8.e-4
GW 4 3 0 -1.325 6.3 0 -1.375 6.3 8.e-4
GW 5 69 0 -1.325 6.3 0 -1.325 7.625 8.e-4
GW 6 3 0 -1.325 7.625 0 -1.275 7.625 8.e-4
GW 7 69 0 -1.275 7.625 0 -1.275 6.3 8.e-4
GW 8 69 0 1.325 6.3 0 1.325 7.625 8.e-4
GW 9 3 0 1.325 7.625 0 1.375 7.625 8.e-4
GW 10 69 0 1.375 7.625 0 1.375 6.3 8.e-4
GW 11 3 0 1.375 6.3 0 1.425 6.3 8.e-4
GW 12 69 0 1.425 6.3 0 1.425 7.625 8.e-4
GW 27 7 0 1.425 7.625 0 1.425 7.7 8.e-4
GW 13 127 -1.4 1.55 7.7 -1.4 -1.5 7.7 8.e-4
GW 14 109 -1.4 1.45 6.3 -1.4 -1.4 6.3 8.e-4
GW 15 7 -1.4 -1.5 7.7 -1.4 -1.5 7.625 8.e-4
GW 26 69 -1.4 -1.5 7.625 -1.4 -1.5 6.3 8.e-4
GW 16 3 -1.4 -1.45 6.3 -1.4 -1.5 6.3 8.e-4
GW 17 69 -1.4 -1.45 6.3 -1.4 -1.45 7.625 8.e-4
GW 18 3 -1.4 -1.45 7.625 -1.4 -1.4 7.625 8.e-4
GW 19 69 -1.4 -1.4 7.625 -1.4 -1.4 6.3 8.e-4
GW 20 69 -1.4 1.45 6.3 -1.4 1.45 7.625 8.e-4
GW 21 3 -1.4 1.45 7.625 -1.4 1.5 7.625 8.e-4
GW 22 69 -1.4 1.5 7.625 -1.4 1.5 6.3 8.e-4
GW 23 3 -1.4 1.5 6.3 -1.4 1.55 6.3 8.e-4
GW 24 69 -1.4 1.55 6.3 -1.4 1.55 7.625 8.e-4
GW 25 7 -1.4 1.55 7.625 -1.4 1.55 7.7 8.e-4
GE 0
EX 0 2 45 0 1 0
GN 1
FR 0 1 0 0 28.5 0
PQ -1
PT -1
RP 0 37 1 1000 -90 0 5 5
EN
