CM W1HXU
CE
GW	1	33	0	1.425	7.7	0	-1.375	7.7	8.e-4
GW	2	33	0	1.325	6.3	0	-1.275	6.3	8.e-4
GW	3	1	0	-1.375	7.7	0	-1.375	7.625	8.e-4
GW	28	21	0	-1.375	7.625	0	-1.375	6.3	8.e-4
GW	4	1	0	-1.325	6.3	0	-1.375	6.3	8.e-4
GW	5	21	0	-1.325	6.3	0	-1.325	7.625	8.e-4
GW	6	1	0	-1.325	7.625	0	-1.275	7.625	8.e-4
GW	7	21	0	-1.275	7.625	0	-1.275	6.3	8.e-4
GW	8	21	0	1.325	6.3	0	1.325	7.625	8.e-4
GW	9	1	0	1.325	7.625	0	1.375	7.625	8.e-4
GW	10	21	0	1.375	7.625	0	1.375	6.3	8.e-4
GW	11	1	0	1.375	6.3	0	1.425	6.3	8.e-4
GW	12	21	0	1.425	6.3	0	1.425	7.625	8.e-4
GW	27	1	0	1.425	7.625	0	1.425	7.7	8.e-4

GW	13	39	-1.4	1.55	7.7	-1.4	-1.5	7.7	8.e-4
GW	14	33	-1.4	1.45	6.3	-1.4	-1.4	6.3	8.e-4
GW	15	1	-1.4	-1.5	7.7	-1.4	-1.5	7.625	8.e-4
GW	26	21	-1.4	-1.5	7.625	-1.4	-1.5	6.3	8.e-4
GW	16	1	-1.4	-1.45	6.3	-1.4	-1.5	6.3	8.e-4
GW	17	21	-1.4	-1.45	6.3	-1.4	-1.45	7.625	8.e-4
GW	18	1	-1.4	-1.45	7.625	-1.4	-1.4	7.625	8.e-4
GW	19	21	-1.4	-1.4	7.625	-1.4	-1.4	6.3	8.e-4
GW	20	21	-1.4	1.45	6.3	-1.4	1.45	7.625	8.e-4
GW	21	1	-1.4	1.45	7.625	-1.4	1.5	7.625	8.e-4
GW	22	21	-1.4	1.5	7.625	-1.4	1.5	6.3	8.e-4
GW	23	1	-1.4	1.5	6.3	-1.4	1.55	6.3	8.e-4
GW	24	21	-1.4	1.55	6.3	-1.4	1.55	7.625	8.e-4
GW	25	1	-1.4	1.55	7.625	-1.4	1.55	7.7	8.e-4

GE	0
EX	0	2	17	0	1	0
GN	1
FR	0	1	0	0	28.5	0
EN
