CM 3el GP80 CW by EU1TT 
CE
GW 1 12 0.0 0.0 0.0 0.0 0.0 23.5  .04
GW 2 13 -2. 0.0  23.0 -18. 0.0  2.0  .002
GW 3 8 -18. 0.0  2.0 -2.5 0.0  2.0  .002
GW 4 13  2.0 0.0  23.0  17.5 0.0  2.0  .002
GW 5 5  7.0 0.0  2.0  17.5 0.0  2.0  .002
GE 1
EX 0 1  1  0  1.0 0.0
LD 0 1  1  1 0 0 378e-12
GN 3 0 0 0 13  0.005 0.0 0.0
FR 0 1 0 0 3.55 1
EN
