CM Diamond Quadx2 14
CE
GW 1 33  .02 -.02  10.0  2.87 -2.87  14.07  .0008
GW 2 33  2.87 -2.87  14.07 0.0 0.0  18.15  .0008
GW 3 33 0.0 0.0  18.15 -2.87  2.87  14.07  .0008
GW 4 33 -2.87  2.87  14.07 -.02  .02  10.0  .0008
GW 5 33  .02  .02  10.0  2.87  2.87  14.07  .0008
GW 6 33  2.87  2.87  14.07 0.0 0.0  18.15  .0008
GW 7 33 0.0 0.0  18.15 -2.87 -2.87  14.07  .0008
GW 8 33 -2.87 -2.87  14.07 -.02 -.02  10.0  .0008
GW 9 1  .02 -.02  10.0  .02  .02  10.0  .0008
GW 10 1 -.02 -.02  10.0 -.02  .02  10.0  .0008
GE 0
EX 0 10  1  0  1.0 0.0
sy cap=157pF
LD 0 9  1  1 0 0 cap
FR 0 1 0 0 14.15 1
EN
