CM  Sigma Yagi DL9JFT
CE
GW 1 7 0.0 0.0  10.0  2.16  2.92  10.0  .0008
GW 2 7 0.0 0.0  10.0  2.16 -2.92  10.0  .0008
GW 3 4  2.16  2.92  10.0  .33  3.13  10.0  .0008
GW 4 4  2.16 -2.92  10.0  .33 -3.13  10.0  .0008
GW 5 7  2.38 0.0  10.0  4.42 -2.7  10.0  .0008
GW 6 7  2.38 0.0  10.0  4.42  2.7  10.0  .0008
GW 7 4  4.42  2.7  10.0  2.45  2.9  10.0  .0008
GW 8 4  4.42 -2.7  10.0  2.45 -2.9  10.0  .0008
GE 0
EX 0 6  1  0  1.0 0.0
EX 0 5  1  0 -1. 0.0
FR 0 1 0 0 14.15 1
EN
