CM 4ele 15m  (use step-radius correction)
CE
GW 1 5 0.0 -.025  7.0 0.0 -1.018  7.0  .013
GW 2 4 0.0 -1.018  7.0 0.0 -2.018  7.0  .012
GW 3 4 0.0 -2.018  7.0 0.0 -3.018  7.0  .01
GW 4 2 0.0 -3.018  7.0 0.0 -3.354  7.0  .008
GW 5 8 -1.76 -1.  7.0 -1.76  1.0  7.0  .013
GW 6 4 -1.76  1.0  7.0 -1.76  2.0  7.0  .012
GW 7 4 -1.76 -2.  7.0 -1.76 -1.  7.0  .012
GW 8 4 -1.76  2.0  7.0 -1.76  3.0  7.0  .01
GW 9 4 -1.76 -3.  7.0 -1.76 -2.  7.0  .01
GW 10 3 -1.76  3.0  7.0 -1.76  3.61  7.0  .008
GW 11 3 -1.76 -3.61  7.0 -1.76 -3.  7.0  .008
GW 12 8  2.85 -1.  7.0  2.85  1.0  7.0  .013
GW 13 4  2.85  1.0  7.0  2.85  2.0  7.0  .012
GW 14 4  2.85 -2.  7.0  2.85 -1.  7.0  .012
GW 15 4  2.85  2.0  7.0  2.85  3.0  7.0  .01
GW 16 4  2.85 -3.  7.0  2.85 -2.  7.0  .01
GW 17 2  2.85  3.0  7.0  2.85  3.31  7.0  .008
GW 18 2  2.85 -3.31  7.0  2.85 -3.  7.0  .008
GW 19 8  6.4 -1.  7.0  6.4  1.0  7.0  .013
GW 20 4  6.4  1.0  7.0  6.4  2.0  7.0  .012
GW 21 4  6.4 -2.  7.0  6.4 -1.  7.0  .012
GW 22 4  6.4  2.0  7.0  6.4  3.0  7.0  .01
GW 23 4  6.4 -3.  7.0  6.4 -2.  7.0  .01
GW 24 1  6.4  3.0  7.0  6.4  3.19  7.0  .008
GW 25 1  6.4 -3.19  7.0  6.4 -3.  7.0  .008
GW 26 5 0.0  .025  7.0 0.0  1.018  7.0  .013
GW 27 4 0.0  1.018  7.0 0.0  2.018  7.0  .012
GW 28 4 0.0  2.018  7.0 0.0  3.018  7.0  .01
GW 29 2 0.0  3.018  7.0 0.0  3.354  7.0  .008
GW 30 3 0.0  .025  7.0 -0.475  .025  7.0  .005
GW 31 3 -0.475 -.025  7.0 0.0 -.025  7.0  .005
GW 32 1 0.0  .025  7.0 0.0 -.025  7.0  .005
GW 33 1 -0.475  .025  7.0 -0.475 -.025  7.0  .005
GS 0 0 1.0
GE 1
EK
EX 0 32  1  0  1.0 0.0
GN 2 0 0 0 13  0.005 0.0 0.0
FR 0 1 0 0 21.05 1
EN
