CM HB9CV 20m
CE
sy len=4.9	'4.945
GW 1 19 0.0 -len  20.0 0.0  len  20.0  .01
GW 2 19 -2.65 -5.31  20.0 -2.65  5.31  20.0  .01
GE 0
EX 0 1  10  0  .5 0.0
EX 0 2  10  0 -.3535534  .3535534
FR 0 1 0 0 14.05 1
EN
