CM Jungle job (75 ohm)
CE
GW 1 19 0.0  4.86  20.0 0.0 -4.86  20.0  .001
GW 2 10 -4.1502 5.085E-16  20.0 -.78 -4.04  20.0  .001
GW 3 10 -4.1502 5.085E-16  20.0 -.8  4.04  20.0  .001
GE 0
EX 0 1  10  0  1.0 0.0
FR 0 1 0 0 14.1 1
EN
