CM 6ele Log Periodic Dipole Array 15m
CM (use step-radius conversion)
CE
GW	1	10	0	-3.169	20	0	-1.585	20	8.e-3
GW	4	10	0	-1.585	20	0	-0.025	20	0.012
GW	6	10	-0.649	0.025	20	-0.649	1.585	20	0.012
GW	7	10	-0.649	1.585	20	-0.649	3.347	20	8.e-3
GW	9	12	-1.335	-3.539	20	-1.335	-1.585	20	8.e-3
GW	12	10	-1.335	-1.585	20	-1.335	-0.025	20	0.012
GW	14	10	-2.059	0.025	20	-2.059	1.585	20	0.012
GW	15	14	-2.059	1.585	20	-2.059	3.742	20	8.e-3
GW	17	14	-3.296	-3.757	20	-3.296	-1.585	20	8.e-3
GW	18	18	-3.296	-1.585	20	-3.296	1.585	20	0.012
GW	19	14	-3.296	1.585	20	-3.296	3.757	20	8.e-3
GW	20	3	-2.059	0.025	20	-1.335	-0.025	20	3.e-3
GW	21	10	2.18	-3.291	20	2.18	-1.585	20	8.e-3
GW	22	18	2.18	-1.585	20	2.18	1.585	20	0.012
GW	23	10	2.18	1.585	20	2.18	3.291	20	8.e-3
GW	25	3	-1.335	-0.025	20	-0.649	0.025	20	3.e-3
GW	27	3	-0.649	0.025	20	0	-0.025	20	3.e-3
GW	29	1	0	0.025	20.02	0	-0.025	20	8.e-3
GW	2	10	0	0.025	20.02	0	1.585	20.02	0.012
GW	3	10	0	1.585	20.02	0	3.169	20.02	8.e-3
GW	5	10	-0.649	-3.347	20.02	-0.649	-1.585	20.02	8.e-3
GW	8	10	-0.649	-1.585	20.02	-0.649	-0.025	20.02	0.012
GW	10	10	-1.335	0.025	20.02	-1.335	1.585	20.02	0.012
GW	11	12	-1.335	1.585	20.02	-1.335	3.539	20.02	8.e-3
GW	13	14	-2.059	-3.742	20.02	-2.059	-1.585	20.02	8.e-3
GW	16	10	-2.059	-1.585	20.02	-2.059	-0.025	20.02	0.012
GW	24	3	-2.059	-0.025	20.02	-1.335	0.025	20.02	3.e-3
GW	26	3	-1.335	0.025	20.02	-0.649	-0.025	20.02	3.e-3
GW	28	3	-0.649	-0.025	20.02	0	0.025	20.02	3.e-3
GE	0
EK
EX	0	29	1	0	1	0
GN	2	0	0	0	13	.005
FR	0	1	0	0	21.2	0
EN
