CM Multi-Band CQ (20m:w1c,15m:w17c,10m:w21c)
CE
GW 1 11 0.0 -2.68  17.32 0.0  2.68  17.32  .005
GW 2 11 0.0  2.68  17.32 0.0  2.68  22.68  .005
GW 3 11 0.0  2.68  22.68 0.0 -2.68  22.68  .005
GW 4 11 0.0 -2.68  22.68 0.0 -2.68  17.32  .005
GW 5 8 -2.15 -1.875  18.125 -2.15  1.875  18.125  .005
GW 6 8 -2.15  1.875  18.125 -2.15  1.875  21.875  .005
GW 7 8 -2.15  1.875  21.875 -2.15 -1.875  21.875  .005
GW 8 8 -2.15 -1.875  21.875 -2.15 -1.875  18.125  .005
GW 9 11 -2.15 -2.813  17.187 -2.15  2.813  17.187  .005
GW 10 11 -2.15  2.813  17.187 -2.15  2.813  22.813  .005
GW 11 11 -2.15  2.813  22.813 -2.15 -2.813  22.813  .005
GW 12 11 -2.15 -2.813  22.813 -2.15 -2.813  17.187  .005
GW 13 6 -2.15 -1.475  18.525 -2.15  1.475  18.525  .005
GW 14 6 -2.15  1.475  18.525 -2.15  1.475  21.475  .005
GW 15 6 -2.15  1.475  21.475 -2.15 -1.475  21.475  .005
GW 16 6 -2.15 -1.475  21.475 -2.15 -1.475  18.525  .005
GW 17 8 0.0 -1.8  18.2 0.0  1.8  18.2  .005
GW 18 8 0.0  1.8  18.2 0.0  1.8  21.8  .005
GW 19 8 0.0  1.8  21.8 0.0 -1.8  21.8  .005
GW 20 8 0.0 -1.8  21.8 0.0 -1.8  18.2  .005
GW 21 6 0.0 -1.336  18.664 0.0  1.336  18.664  .005
GW 22 6 0.0  1.336  18.664 0.0  1.336  21.336  .005
GW 23 6 0.0  1.336  21.336 0.0 -1.336  21.336  .005
GW 24 6 0.0 -1.336  21.336 0.0 -1.336  18.664  .005
GE 0
'GN 2 0 0 0 13 .005
EX 0 1  6  0  1.0 0.0
FR 0 1 0 0 14.05 1
EN
