CM W2EEY with gamma match
CE
GW 1 8  .099 -.099  10.0  2.77 -2.77  10.0  .01
GW 2 1 -.099 -.099  10.0 -.445 -.445  10.0  .01
GW 3 8  .099  .099  10.0  2.77  2.77  10.0  .01
GW 4 8 -.099  .099  10.0 -2.77  2.77  10.0  .01
GW 5 6  2.77 -2.77  10.0  .099 -2.77  10.0  .002
GW 6 6  2.77  2.77  10.0  .099  2.77  10.0  .002
GW 7 6 -2.77 -2.77  10.0 -.099 -2.77  10.0  .002
GW 8 6 -2.77  2.77  10.0 -.099  2.77  10.0  .002
GW 9 1  .099  .099  10.0  .099 -.099  10.0  .01
'GW 10 1 -.099  .099  10.0 -.099 0.0  10.0  .01
GW 10 1 -.099  .099  10.0 -.099 -.099  10.0  .01
GW 11 7 -.445 -.445  10.0 -2.77 -2.77  10.0  .01
'GW 12 1 -.445 -.445  10.0 -.544 -.346  10.0  .005
'GW 13 1 -.544 -.346  10.0 -.198 0.0  10.0  .005
'GW 14 1 -.099 0.0  10.0 -.099 -.099  10.0  .01
'GW 15 1 -.099 0.0  10.0 -.198 0.0  10.0  .005
GS 0 0 1.0
GE 0
'EX 0 15  1  0  1.0 0.0
EX 0 10  1  0  1.0 0.0

sy cap=270pF
LD 0 9  1  1 0.0E0 0.0E0 cap

'sy C=104pF
'LD 0 10  1  1 0.0E0 0 C

'LD 0 15  1  1 0.0E0 0.0E0 2.0E-10
FR 0 1 0 0 14.15 1
RP 0  1  361  1000  90  0  1  1 
EN
