CM Expanded Quad 20m Stub-Match
CE
GW 1 10 0.0 -5.35  14.65 0.0 -.08  14.65  .0008
GW 2 21 0.0  5.35  14.65 0.0  5.35  25.35  .0008
GW 3 10 0.0  5.35  25.35 0.0  .04  25.35  .0008
GW 4 21 0.0 -5.35  25.35 0.0 -5.35  14.65  .0008
GW 5 10 0.0 -.04  25.35 0.0 -5.35  25.35  .0008
GW 6 10 0.0  .08  14.65 0.0  5.35  14.65  .0008
GW 7 10 0.0  .08  14.65 0.0  .08  19.79  .0008
GW 8 10 0.0 -.08  14.65 0.0 -.08  19.79  .0008
GW 9 1 0.0 -.08  20.24 0.0  .08  20.24  .0008
GW 10 1 0.0  .08  19.79 0.0  .08  20.24  .0008
GW 11 1 0.0 -.08  19.79 0.0 -.08  20.24  .0008
GW 12 1 0.0 -.08  19.79 0.0  .08  19.79  .0008
GW 13 10 -2.5 -5.35  14.65 -2.5 -.08  14.65  .0008
GW 14 21 -2.5  5.35  14.65 -2.5  5.35  25.35  .0008
GW 15 10 -2.5  5.35  25.35 -2.5  .04  25.35  .0008
GW 16 21 -2.5 -5.35  25.35 -2.5 -5.35  14.65  .0008
GW 17 10 -2.5 -.04  25.35 -2.5 -5.35  25.35  .0008
GW 18 10 -2.5  .08  14.65 -2.5  5.35  14.65  .0008
GW 19 11 -2.5  .08  14.65 -2.5  .08  20.107  .0008
GW 20 11 -2.5 -.08  14.65 -2.5 -.08  20.107  .0008
GW 21 1 -2.5 -.08  20.107 -2.5  .08  20.107  .0008
GE 0
EX 0 12  1  0  1.0 0.0
FR 0 1 0 0 14.05 1
GN 2 0 0 0 13 0.005
EN
