CM ZL Special 20m
CE
GW	1	15	0	-0.035	20	0	-4.719	20	3.5e-3
GW	2	15	0	0.035	20	0	4.719	20	3.5e-3
GW	3	1	0	-4.719	20	0.105	-4.719	20	3.5e-3
GW	4	30	0.105	-4.719	20	0.105	4.719	20	3.5e-3
GW	5	1	0.105	4.719	20	0	4.719	20	3.5e-3
GW	6	16	-2.419	-0.035	20	-2.419	-4.863	20	3.5e-3
GW	7	16	-2.419	0.035	20	-2.419	4.863	20	3.5e-3
GW	8	1	-2.419	-4.863	20	-2.524	-4.863	20	3.5e-3
GW	9	32	-2.524	-4.863	20	-2.524	4.863	20	3.5e-3
GW	10	1	-2.524	4.863	20	-2.419	4.863	20	3.5e-3
GW	11	4	0	-0.035	20	-1.2	-0.035	19.975	3.5e-3
GW	12	4	0	0.035	20	-1.2	0.035	20.025	3.5e-3
GW	13	3	-2.419	-0.035	20	-1.3	-0.035	20.025	3.5e-3
GW	14	3	-2.419	0.035	20	-1.3	0.035	19.975	3.5e-3
GW	15	1	-1.3	-0.035	20.025	-1.2	0.035	20.025	3.5e-3
GW	16	1	-1.3	0.035	19.975	-1.2	-0.035	19.975	3.5e-3
GW	17	1	0	-0.035	20	0	0.035	20	3.5e-3
GE	0
EX	0	17	1	0	1	0
GN	2	0	0	0	13	0.005
FR	0	1	0	0	14.05	0
EN
