CM Just to play with (and yes, I know about the errors)
CE
GW 1 5 -1.1154856 0 1.01706037 -1.2467192 0 0.52493438 0.0328084
GW 2 1 -1.1154856 0 1.01706037 -1.0170604 0 1.01706037 0.0328084
GW 3 1 -1.2467192 0 0.52493438 -1.2467192 0 0.42650919 0.0328084
GW 4 3 -1.0170604 0 1.01706037 -1.148294 0 0.52493438 0.0328084
GW 5 1 -1.148294 0 0.52493438 -0.9514436 0 0.52493438 0.0328084
GW 6 3 -1.2467192 0 0.42650919 -0.9514436 0 0.42650919 0.0328084
GW 7 5 -0.9514436 0 0.52493438 -0.9514436 0 1.01706037 0.0328084
GW 8 1 -0.9514436 0 1.01706037 -0.8530184 0 1.01706037 0.0328084
GW 9 7 -0.8530184 0 1.01706037 -0.8530184 0 0.0328084 0.0328084
GW 10 1 -0.8530184 0 0.0328084 -0.9514436 0 0.0328084 0.0328084
GW 11 3 -0.9514436 0 0.0328084 -0.9514436 0 0.42650919 0.0328084
GW 12 7 -0.7217848 0 1.01706037 -0.7217848 0 0.0328084 0.0328084
GW 13 1 -0.7217848 0 0.0328084 -0.6233596 0 0.0328084 0.0328084
GW 14 3 -0.6233596 0 0.0328084 -0.6233596 0 0.68897638 0.0328084
GW 15 2 -0.6233596 0 0.68897638 -0.3937008 0 0.0328084 0.0328084
GW 16 1 -0.3937008 0 0.0328084 -0.2952756 0 0.0328084 0.0328084
GW 17 7 -0.2952756 0 0.0328084 -0.2952756 0 1.01706037 0.0328084
GW 18 1 -0.2952756 0 1.01706037 -0.3937008 0 1.01706037 0.0328084
GW 19 2 -0.3937008 0 1.01706037 -0.3937008 0 0.36089239 0.0328084
GW 20 2 -0.3937008 0 0.36089239 -0.6233596 0 1.01706037 0.0328084
GW 21 1 -0.7217848 0 1.01706037 -0.6233596 0 1.01706037 0.0328084
GW 22 7 -0.164042 0 1.01706037 -0.164042 0 0.0328084 0.0328084
GW 23 3 -0.164042 0 0.0328084 0.19685039 0 0.0328084 0.0328084
GW 24 1 0.19685039 0 0.0328084 0.19685039 0 0.1312336 0.0328084
GW 25 3 0.19685039 0 0.1312336 -0.0656168 0 0.1312336 0.0328084
GW 26 3 -0.0656168 0 0.1312336 -0.0656168 0 0.45931759 0.0328084
GW 27 1 -0.0656168 0 0.45931759 0.0984252 0 0.45931759 0.0328084
GW 28 1 0.0984252 0 0.45931759 0.0984252 0 0.59055118 0.0328084
GW 29 1 0.0984252 0 0.59055118 -0.0656168 0 0.59055118 0.0328084
GW 30 3 -0.0656168 0 0.59055118 -0.0656168 0 0.88582677 0.0328084
GW 31 3 -0.0656168 0 0.88582677 0.19685039 0 0.88582677 0.0328084
GW 32 1 0.19685039 0 0.88582677 0.19685039 0 1.01706037 0.0328084
GW 33 3 0.19685039 0 1.01706037 -0.164042 0 1.01706037 0.0328084
GW 34 7 0.32808399 0 1.01706037 0.32808399 0 0.0328084 0.0328084
GW 35 3 0.32808399 0 0.0328084 0.65616798 0 0.0328084 0.0328084
GW 36 3 0.65616798 0 0.0328084 0.65616798 0 0.26246719 0.0328084
GW 37 1 0.65616798 0 0.26246719 0.55774278 0 0.26246719 0.0328084
GW 38 1 0.55774278 0 0.26246719 0.55774278 0 0.1312336 0.0328084
GW 39 1 0.55774278 0 0.1312336 0.42650919 0 0.1312336 0.0328084
GW 40 5 0.42650919 0 0.1312336 0.42650919 0 0.91863517 0.0328084
GW 41 1 0.42650919 0 0.91863517 0.55774278 0 0.91863517 0.0328084
GW 42 1 0.55774278 0 0.91863517 0.55774278 0 0.78740157 0.0328084
GW 43 1 0.55774278 0 0.78740157 0.65616798 0 0.78740157 0.0328084
GW 44 3 0.65616798 0 0.78740157 0.65616798 0 1.01706037 0.0328084
GW 45 3 0.65616798 0 1.01706037 0.32808399 0 1.01706037 0.0328084
GW 46 3 0.82020997 0 0.78740157 0.82020997 0 1.01706037 0.0328084
GW 47 3 0.82020997 0 1.01706037 1.14829396 0 1.01706037 0.0328084
GW 48 3 1.14829396 0 1.01706037 1.14829396 0 0.68897638 0.0328084
GW 49 3 1.14829396 0 0.68897638 0.88582677 0 0.1312336 0.0328084
GW 50 2 0.88582677 0 0.1312336 1.14829396 0 0.1312336 0.0328084
GW 51 1 1.14829396 0 0.1312336 1.14829396 0 0.0328084 0.0328084
GW 52 3 1.14829396 0 0.0328084 0.78740157 0 0.0328084 0.0328084
GW 53 1 0.78740157 0 0.0328084 0.78740157 0 0.1312336 0.0328084
GW 54 5 0.78740157 0 0.1312336 1.04986877 0 0.68897638 0.0328084
GW 55 3 1.04986877 0 0.68897638 1.04986877 0 0.91863517 0.0328084
GW 56 1 1.04986877 0 0.91863517 0.91863517 0 0.91863517 0.0328084
GW 57 1 0.91863517 0 0.91863517 0.91863517 0 0.78740157 0.0328084
GW 58 1 0.91863517 0 0.78740157 0.82020997 0 0.78740157 0.0328084
GW 59 5 -1.115486 0.328084 1.0170604 -1.246719 0.328084 0.5249344 0.0328084
GW 60 1 -1.115486 0.328084 1.0170604 -1.01706 0.328084 1.0170604 0.0328084
GW 61 1 -1.246719 0.328084 0.5249344 -1.246719 0.328084 0.4265092 0.0328084
GW 62 3 -1.01706 0.328084 1.0170604 -1.148294 0.328084 0.5249344 0.0328084
GW 63 1 -1.148294 0.328084 0.5249344 -0.951444 0.328084 0.5249344 0.0328084
GW 64 3 -1.246719 0.328084 0.4265092 -0.951444 0.328084 0.4265092 0.0328084
GW 65 5 -0.951444 0.328084 0.5249344 -0.951444 0.328084 1.0170604 0.0328084
GW 66 1 -0.951444 0.328084 1.0170604 -0.853018 0.328084 1.0170604 0.0328084
GW 67 7 -0.853018 0.328084 1.0170604 -0.853018 0.328084 0.0328084 0.0328084
GW 68 1 -0.853018 0.328084 0.0328084 -0.951444 0.328084 0.0328084 0.0328084
GW 69 3 -0.951444 0.328084 0.0328084 -0.951444 0.328084 0.4265092 0.0328084
GW 70 7 -0.721785 0.328084 1.0170604 -0.721785 0.328084 0.0328084 0.0328084
GW 71 1 -0.721785 0.328084 0.0328084 -0.62336 0.328084 0.0328084 0.0328084
GW 72 2 -0.62336 0.328084 0.0328084 -0.62336 0.328084 0.6889764 0.0328084
GW 73 2 -0.62336 0.328084 0.6889764 -0.393701 0.328084 0.0328084 0.0328084
GW 74 1 -0.393701 0.328084 0.0328084 -0.295276 0.328084 0.0328084 0.0328084
GW 75 7 -0.295276 0.328084 0.0328084 -0.295276 0.328084 1.0170604 0.0328084
GW 76 1 -0.295276 0.328084 1.0170604 -0.393701 0.328084 1.0170604 0.0328084
GW 77 2 -0.393701 0.328084 1.0170604 -0.393701 0.328084 0.3608924 0.0328084
GW 78 2 -0.393701 0.328084 0.3608924 -0.62336 0.328084 1.0170604 0.0328084
GW 79 1 -0.721785 0.328084 1.0170604 -0.62336 0.328084 1.0170604 0.0328084
GW 80 7 -0.164042 0.328084 1.0170604 -0.164042 0.328084 0.0328084 0.0328084
GW 81 3 -0.164042 0.328084 0.0328084 0.1968504 0.328084 0.0328084 0.0328084
GW 82 1 0.1968504 0.328084 0.0328084 0.1968504 0.328084 0.1312336 0.0328084
GW 83 3 0.1968504 0.328084 0.1312336 -0.065617 0.328084 0.1312336 0.0328084
GW 84 3 -0.065617 0.328084 0.1312336 -0.065617 0.328084 0.4593176 0.0328084
GW 85 1 -0.065617 0.328084 0.4593176 0.0984252 0.328084 0.4593176 0.0328084
GW 86 1 0.0984252 0.328084 0.4593176 0.0984252 0.328084 0.5905512 0.0328084
GW 87 1 0.0984252 0.328084 0.5905512 -0.065617 0.328084 0.5905512 0.0328084
GW 88 3 -0.065617 0.328084 0.5905512 -0.065617 0.328084 0.8858268 0.0328084
GW 89 3 -0.065617 0.328084 0.8858268 0.1968504 0.328084 0.8858268 0.0328084
GW 90 1 0.1968504 0.328084 0.8858268 0.1968504 0.328084 1.0170604 0.0328084
GW 91 3 0.1968504 0.328084 1.0170604 -0.164042 0.328084 1.0170604 0.0328084
GW 93 3 0.82021 0.328084 0.7874016 0.82021 0.328084 1.0170604 0.0328084
GW 94 3 0.82021 0.328084 1.0170604 1.148294 0.328084 1.0170604 0.0328084
GW 95 3 1.148294 0.328084 1.0170604 1.148294 0.328084 0.6889764 0.0328084
GW 96 3 1.148294 0.328084 0.6889764 0.8858268 0.328084 0.1312336 0.0328084
GW 97 2 0.8858268 0.328084 0.1312336 1.148294 0.328084 0.1312336 0.0328084
GW 98 1 1.148294 0.328084 0.1312336 1.148294 0.328084 0.0328084 0.0328084
GW 99 3 1.148294 0.328084 0.0328084 0.7874016 0.328084 0.0328084 0.0328084
GW 100 1 0.7874016 0.328084 0.0328084 0.7874016 0.328084 0.1312336 0.0328084
GW 101 5 0.7874016 0.328084 0.1312336 1.0498688 0.328084 0.6889764 0.0328084
GW 102 3 1.0498688 0.328084 0.6889764 1.0498688 0.328084 0.9186352 0.0328084
GW 103 1 1.0498688 0.328084 0.9186352 0.9186352 0.328084 0.9186352 0.0328084
GW 104 1 0.9186352 0.328084 0.9186352 0.9186352 0.328084 0.7874016 0.0328084
GW 105 1 0.9186352 0.328084 0.7874016 0.82021 0.328084 0.7874016 0.0328084
GW 106 3 -1.1154856 0 1.01706037 -1.1154856 0.32808399 1.01706037 0.0328084
GW 107 3 -1.0170604 0 1.01706037 -1.0170604 0.32808399 1.01706037 0.0328084
GW 108 3 -0.9514436 0 1.01706037 -0.9514436 0.32808399 1.01706037 0.0328084
GW 109 3 -0.8530184 0 1.01706037 -0.8530184 0.32808399 1.01706037 0.0328084
GW 110 3 -1.2467192 0 0.52493438 -1.2467192 0.32808399 0.52493438 0.0328084
GW 111 3 -1.2467192 0 0.42650919 -1.2467192 0.32808399 0.42650919 0.0328084
GW 112 3 -1.148294 0 0.52493438 -1.148294 0.32808399 0.52493438 0.0328084
GW 113 3 -0.9514436 0 0.52493438 -0.9514436 0.32808399 0.52493438 0.0328084
GW 114 3 -0.9514436 0 0.42650919 -0.9514436 0.32808399 0.42650919 0.0328084
GW 115 3 -0.7217848 0 1.01706037 -0.7217848 0.32808399 1.01706037 0.0328084
GW 116 3 -0.6233596 0 1.01706037 -0.6233596 0.32808399 1.01706037 0.0328084
GW 117 3 -0.3937008 0 1.01706037 -0.3937008 0.32808399 1.01706037 0.0328084
GW 118 3 -0.2952756 0 1.01706037 -0.2952756 0.32808399 1.01706037 0.0328084
GW 119 3 -0.9514436 0 0.0328084 -0.9514436 0.32808399 0.0328084 0.0328084
GW 120 3 -0.8530184 0 0.0328084 -0.8530184 0.32808399 0.0328084 0.0328084
GW 121 3 -0.7217848 0 0.0328084 -0.7217848 0.32808399 0.0328084 0.0328084
GW 122 3 -0.6233596 0 0.0328084 -0.6233596 0.32808399 0.0328084 0.0328084
GW 123 3 -0.3937008 0 0.36089239 -0.3937008 0.32808399 0.36089239 0.0328084
GW 124 3 -0.6233596 0 0.68897638 -0.6233596 0.32808399 0.68897638 0.0328084
GW 125 3 -0.164042 0 1.01706037 -0.164042 0.32808399 1.01706037 0.0328084
GW 126 3 0.19685039 0 1.01706037 0.19685039 0.32808399 1.01706037 0.0328084
GW 127 3 -0.0656168 0 0.88582677 -0.0656168 0.32808399 0.88582677 0.0328084
GW 128 3 0.19685039 0 0.88582677 0.19685039 0.32808399 0.88582677 0.0328084
GW 129 3 -0.3937008 0 0.0328084 -0.3937008 0.32808399 0.0328084 0.0328084
GW 130 3 -0.2952756 0 0.0328084 -0.2952756 0.32808399 0.0328084 0.0328084
GW 131 3 -0.164042 0 0.0328084 -0.164042 0.32808399 0.0328084 0.0328084
GW 132 3 -0.0656168 0 0.59055118 -0.0656168 0.32808399 0.59055118 0.0328084
GW 133 1 0.0984252 0 0.59055118 0.0984252 0.32808399 0.59055118 0.0328084
GW 134 3 -0.0656168 0 0.45931759 -0.0656168 0.32808399 0.45931759 0.0328084
GW 135 1 0.0984252 0 0.45931759 0.0984252 0.32808399 0.45931759 0.0328084
GW 136 3 0.32808399 0 1.01706037 0.32808399 0.32808399 1.01706037 0.0328084
GW 137 3 0.42650919 0 0.91863517 0.42650919 0.32808399 0.91863517 0.0328084
GW 138 3 0.55774278 0 0.91863517 0.55774278 0.32808399 0.91863517 0.0328084
GW 139 3 0.55774278 0 0.78740157 0.55774278 0.32808399 0.78740157 0.0328084
GW 140 3 0.65616798 0 1.01706037 0.65616798 0.32808399 1.01706037 0.0328084
GW 141 3 0.19685039 0 0.1312336 0.19685039 0.32808399 0.1312336 0.0328084
GW 142 3 0.19685039 0 0.0328084 0.19685039 0.32808399 0.0328084 0.0328084
GW 143 3 0.65616798 0 0.0328084 0.65616798 0.32808399 0.0328084 0.0328084
GW 144 3 0.65616798 0 0.26246719 0.65616798 0.32808399 0.26246719 0.0328084
GW 145 3 0.55774278 0 0.26246719 0.55774278 0.32808399 0.26246719 0.0328084
GW 146 3 0.32808399 0 0.0328084 0.32808399 0.32808399 0.0328084 0.0328084
GW 147 3 0.82020997 0 1.01706037 0.82020997 0.32808399 1.01706037 0.0328084
GW 148 3 0.82020997 0 0.78740157 0.82020997 0.32808399 0.78740157 0.0328084
GW 149 3 0.91863517 0 0.91863517 0.91863517 0.32808399 0.91863517 0.0328084
GW 150 3 0.91863517 0 0.78740157 0.91863517 0.32808399 0.78740157 0.0328084
GW 151 3 1.14829396 0 1.01706037 1.14829396 0.32808399 1.01706037 0.0328084
GW 152 3 1.04986877 0 0.68897638 1.04986877 0.32808399 0.68897638 0.0328084
GW 153 3 1.14829396 0 0.68897638 1.14829396 0.32808399 0.68897638 0.0328084
GW 154 3 0.78740157 0 0.1312336 0.78740157 0.32808399 0.1312336 0.0328084
GW 155 3 1.14829396 0 0.0328084 1.14829396 0.32808399 0.0328084 0.0328084
GW 156 3 1.14829396 0 0.1312336 1.14829396 0.32808399 0.1312336 0.0328084
GW 157 3 0.88582677 0 0.1312336 0.88582677 0.32808399 0.1312336 0.0328084
GW 158 3 0.78740157 0 0.0328084 0.78740157 0.32808399 0.0328084 0.0328084
GW 159 7 0.328084 0.328084 1.0170604 0.328084 0.328084 0.0328084 0.0328084
GW 160 3 0.328084 0.328084 0.0328084 0.656168 0.328084 0.0328084 0.0328084
GW 161 3 0.656168 0.328084 0.0328084 0.656168 0.328084 0.2624672 0.0328084
GW 162 1 0.656168 0.328084 0.2624672 0.5577428 0.328084 0.2624672 0.0328084
GW 163 1 0.5577428 0.328084 0.2624672 0.5577428 0.328084 0.1312336 0.0328084
GW 164 1 0.5577428 0.328084 0.1312336 0.4265092 0.328084 0.1312336 0.0328084
GW 165 5 0.4265092 0.328084 0.1312336 0.4265092 0.328084 0.9186352 0.0328084
GW 166 1 0.4265092 0.328084 0.9186352 0.5577428 0.328084 0.9186352 0.0328084
GW 167 1 0.5577428 0.328084 0.9186352 0.5577428 0.328084 0.7874016 0.0328084
GW 168 1 0.5577428 0.328084 0.7874016 0.656168 0.328084 0.7874016 0.0328084
GW 169 3 0.656168 0.328084 0.7874016 0.656168 0.328084 1.0170604 0.0328084
GW 170 3 0.656168 0.328084 1.0170604 0.328084 0.328084 1.0170604 0.0328084
GW 174 3 0.42650919 0 0.1312336 0.42650919 0.32808399 0.1312336 0.0328084
GW 175 3 0.55774278 0 0.1312336 0.55774278 0.32808399 0.1312336 0.0328084
GS 0 0 0.3048		' All in ft.
GE 0
EK
EX 0 28 1 0 1 0
'GN 1
SY FREQ=234	'299.81
FR 0 1 0 0 FREQ 0
EN
