CM "747-200 Wire frame AWG 12  2 brake points 500-150"
CM Location Wire length Seg length  # Seg Diam(IN) Dim (M)       
CM     Devisors are 200 150 and 25                       
CM Card wire # # sect x1 y1 z1 x2 y2 z2 wire size !       Wires      
CM
CM Run's about 4 minuts on PIII, 100 Mhz, Needs nec2d1k9, >= 64Mb	
CE        
GW 1 5 1102.48 -128.50 118.35 1102.00 -128.50 0.00 81.0E-3 ! Drive connection 118.35 23.67 4.73     Longest 1355.63   
GW 2 1 100.00 20.00 226.00 100.00 15.00 239.00 81.0E-3 ! Nose (100) 13.93 13.93 0.56     Shortest 7.07   
GW 3 1 100.00 15.00 239.00 100.00 9.00 245.00 81.0E-3 !  8.49 8.49 0.34     Average 169.96   
GW 4 1 100.00 9.00 245.00 100.00 0.00 246.00 81.0E-3 !  9.06 9.06 0.36     Standard dev 230.20   
GW 5 1 100.00 0.00 246.00 100.00 -9.00 245.00 81.0E-3 !  9.06 9.06 0.36         
GW 6 1 100.00 -9.00 245.00 100.00 -15.00 239.00 81.0E-3 !  8.49 8.49 0.34         
GW 7 1 100.00 -15.00 239.00 100.00 -20.00 226.00 81.0E-3 !  13.93 13.93 0.56   Segments  Total 1611.00   
GW 8 1 100.00 -20.00 226.00 100.00 -19.00 219.00 81.0E-3 !  7.07 7.07 0.28     Longest 193.66 0.0335  
GW 9 1 100.00 -19.00 219.00 100.00 -11.00 209.00 81.0E-3 !  12.81 12.81 0.51     Shortest 7.07 0.0012  
GW 10 1 100.00 -11.00 209.00 100.00 0.00 205.00 81.0E-3 !  11.70 11.70 0.47     Average 43.53 0.0075  
GW 11 1 100.00 0.00 205.00 100.00 11.00 209.00 81.0E-3 !  11.70 11.70 0.47     Standard dev 47.29   
GW 12 1 100.00 11.00 209.00 100.00 19.00 219.00 81.0E-3 !  12.81 12.81 0.51     Core Mem. req. 39.60 Meg Bytes  
GW 13 1 100.00 19.00 219.00 100.00 20.00 226.00 81.0E-3 !  7.07 7.07 0.28 126.12 3.20 Analysis    
GW 14 5 100.00 20.00 226.00 200.00 67.00 230.00 81.0E-3 !  110.57 22.11 4.42       
GW 15 5 100.00 15.00 239.00 200.00 60.00 264.00 81.0E-3 !  112.47 22.49 4.50       
GW 16 5 100.00 9.00 245.00 200.00 37.00 295.00 81.0E-3 !  115.26 23.05 4.61      Inch l
GW 17 5 100.00 0.00 246.00 200.00 0.00 308.00 81.0E-3 !  117.66 23.53 4.71     Brake point 1 500.00 0.0865
GW 18 5 100.00 -9.00 245.00 200.00 -37.00 295.00 81.0E-3 !  115.26 23.05 4.61     Brake point 2 300.00 0.0519
GW 19 5 100.00 -15.00 239.00 200.00 -60.00 264.00 81.0E-3 !  112.47 22.49 4.50     Long run seg size 200.00 0.0346
GW 20 5 100.00 -20.00 226.00 200.00 -67.00 230.00 81.0E-3 !  110.57 22.11 4.42     mid run seg size 150.00 0.0259
GW 21 5 100.00 -19.00 219.00 200.00 -64.00 193.00 81.0E-3 !  112.70 22.54 4.51     Short run Seq size 25.00 0.0043
GW 22 5 100.00 -11.00 209.00 200.00 -37.00 163.00 81.0E-3 !  113.10 22.62 4.52     Wire Diameter 81.0E-3 14.0E-6
GW 23 5 100.00 0.00 205.00 200.00 0.00 153.00 81.0E-3 !  112.71 22.54 4.51       
GW 24 5 100.00 11.00 209.00 200.00 37.00 163.00 81.0E-3 !  113.10 22.62 4.52     Freq (MHz)= 2.00 Mhz
GW 25 5 100.00 19.00 219.00 200.00 64.00 193.00 81.0E-3 !  112.70 22.54 4.51     One l  5783.57 Inches
GW 26 2 200.00 67.00 230.00 200.00 60.00 264.00 81.0E-3 ! Refuel (200) 34.71 17.36 1.39     0.1*Lambda 578.36 Inches
GW 27 2 200.00 60.00 264.00 200.00 37.00 295.00 81.0E-3 !  38.60 19.30 1.54     0.08*Lambda 462.69 Inches
GW 28 2 200.00 37.00 295.00 200.00 0.00 308.00 81.0E-3 !  39.22 19.61 1.57     0.06*Lambda 347.01 Inches
GW 29 2 200.00 0.00 308.00 200.00 -37.00 295.00 81.0E-3 !  39.22 19.61 1.57     0.05*Lambda 231.34 Inches
GW 30 2 200.00 -37.00 295.00 200.00 -60.00 264.00 81.0E-3 !  38.60 19.30 1.54       
GW 31 2 200.00 -60.00 264.00 200.00 -67.00 230.00 81.0E-3 !  34.71 17.36 1.39     Free Space l = 5901.60 Inches
GW 32 2 200.00 -67.00 230.00 200.00 -64.00 193.00 81.0E-3 !  37.12 18.56 1.48     l/dia 73.0E+3 
GW 33 2 200.00 -64.00 193.00 200.00 -37.00 163.00 81.0E-3 !  40.36 20.18 1.61     K factor = 0.98 
GW 34 2 200.00 -37.00 163.00 200.00 0.00 153.00 81.0E-3 !  38.33 19.17 1.53       
GW 35 2 200.00 0.00 153.00 200.00 37.00 163.00 81.0E-3 !  38.33 19.17 1.53      1.1E-3 
GW 36 2 200.00 37.00 163.00 200.00 64.00 193.00 81.0E-3 !  40.36 20.18 1.61       
GW 37 2 200.00 64.00 193.00 200.00 67.00 230.00 81.0E-3 !  37.12 18.56 1.48 456.68 11.60     
GW 38 3 200.00 67.00 230.00 250.00 82.00 230.00 81.0E-3 !  52.20 17.40 2.09      149.90 meters
GW 39 3 200.00 60.00 264.00 250.00 72.00 271.00 81.0E-3 !  51.89 17.30 2.08       
GW 40 3 200.00 37.00 295.00 250.00 47.00 310.00 81.0E-3 !  53.15 17.72 2.13       
GW 41 3 200.00 0.00 308.00 250.00 0.00 333.00 81.0E-3 !  55.90 18.63 2.24       
GW 42 3 200.00 -37.00 295.00 250.00 -47.00 310.00 81.0E-3 !  53.15 17.72 2.13       
GW 43 3 200.00 -60.00 264.00 250.00 -72.00 271.00 81.0E-3 !  51.89 17.30 2.08       
GW 44 3 200.00 -67.00 230.00 250.00 -82.00 230.00 81.0E-3 !  52.20 17.40 2.09       
GW 45 3 200.00 -64.00 193.00 250.00 -72.00 185.00 81.0E-3 !  51.26 17.09 2.05    
GW 46 3 200.00 -37.00 163.00 250.00 -47.00 148.00 81.0E-3 !  53.15 17.72 2.13    
GW 47 3 200.00 0.00 153.00 250.00 0.00 135.00 81.0E-3 !  53.14 17.71 2.13    
GW 48 3 200.00 37.00 163.00 250.00 47.00 148.00 81.0E-3 !  53.15 17.72 2.13    
GW 49 3 200.00 64.00 193.00 250.00 72.00 185.00 81.0E-3 !  51.26 17.09 2.05    

GW 50 2 250.00 82.00 230.00 250.00 72.00 271.00 81.0E-3 ! Fwd of Cockpit (2500) 42.20 21.10 1.69    
GW 51 2 250.00 72.00 271.00 250.00 47.00 310.00 81.0E-3 !  46.32 23.16 1.85    
GW 52 3 250.00 47.00 310.00 250.00 0.00 333.00 81.0E-3 !  52.33 17.44 2.09    
GW 53 3 250.00 0.00 333.00 250.00 -47.00 310.00 81.0E-3 !  52.33 17.44 2.09    
GW 54 2 250.00 -47.00 310.00 250.00 -72.00 271.00 81.0E-3 !  46.32 23.16 1.85    
GW 55 2 250.00 -72.00 271.00 250.00 -82.00 230.00 81.0E-3 !  42.20 21.10 1.69    
GW 56 2 250.00 -82.00 230.00 250.00 -72.00 185.00 81.0E-3 !  46.10 23.05 1.84    
GW 57 2 250.00 -72.00 185.00 250.00 -47.00 148.00 81.0E-3 !  44.65 22.33 1.79    
GW 58 2 250.00 -47.00 148.00 250.00 0.00 135.00 81.0E-3 !  48.76 24.38 1.95    
GW 59 2 250.00 0.00 135.00 250.00 47.00 148.00 81.0E-3 !  48.76 24.38 1.95    
GW 60 2 250.00 47.00 148.00 250.00 72.00 185.00 81.0E-3 !  44.65 22.33 1.79    
GW 61 2 250.00 72.00 185.00 250.00 82.00 230.00 81.0E-3 !  46.10 23.05 1.84 560.72 14.25  
GW 62 4 250.00 82.00 230.00 340.00 99.00 230.00 81.0E-3 !  91.59 22.90 3.66    
GW 63 4 250.00 72.00 271.00 340.00 89.00 280.00 81.0E-3 !  92.03 23.01 3.68    
GW 64 4 250.00 47.00 310.00 340.00 61.00 335.00 81.0E-3 !  94.45 23.61 3.78    
GW 65 5 250.00 0.00 333.00 340.00 0.00 389.00 81.0E-3 !  106.00 21.20 4.24    
GW 66 4 250.00 -47.00 310.00 340.00 -61.00 335.00 81.0E-3 !  94.45 23.61 3.78    
GW 67 4 250.00 -72.00 271.00 340.00 -89.00 280.00 81.0E-3 !  92.03 23.01 3.68    
GW 68 4 250.00 -82.00 230.00 340.00 -99.00 230.00 81.0E-3 !  91.59 22.90 3.66    
GW 69 4 250.00 -72.00 185.00 340.00 -89.00 175.00 81.0E-3 !  92.14 23.04 3.69    
GW 70 4 250.00 -47.00 148.00 340.00 -61.00 128.00 81.0E-3 !  93.25 23.31 3.73    
GW 71 4 250.00 0.00 135.00 340.00 0.00 117.00 81.0E-3 !  91.78 22.95 3.67    
GW 72 4 250.00 47.00 148.00 340.00 61.00 128.00 81.0E-3 !  93.25 23.31 3.73    
GW 73 4 250.00 72.00 185.00 340.00 89.00 175.00 81.0E-3 !  92.14 23.04 3.69    
GW 74 3 340.00 99.00 230.00 340.00 89.00 280.00 81.0E-3 ! Rear of Cockpit (340) 50.99 17.00 2.04    
GW 75 3 340.00 89.00 280.00 340.00 61.00 335.00 81.0E-3 !  61.72 20.57 2.47    
GW 76 4 340.00 61.00 335.00 340.00 0.00 389.00 81.0E-3 !  81.47 20.37 3.26    
GW 77 4 340.00 0.00 389.00 340.00 -61.00 335.00 81.0E-3 !  81.47 20.37 3.26    
GW 78 3 340.00 -61.00 335.00 340.00 -89.00 280.00 81.0E-3 !  61.72 20.57 2.47    
GW 79 3 340.00 -89.00 280.00 340.00 -99.00 230.00 81.0E-3 !  50.99 17.00 2.04    
GW 80 3 340.00 -99.00 230.00 340.00 -89.00 175.00 81.0E-3 !  55.90 18.63 2.24    
GW 81 3 340.00 -89.00 175.00 340.00 -61.00 128.00 81.0E-3 !  54.71 18.24 2.19    
GW 82 3 340.00 -61.00 128.00 340.00 0.00 117.00 81.0E-3 !  61.98 20.66 2.48    
GW 83 3 340.00 0.00 117.00 340.00 61.00 128.00 81.0E-3 !  61.98 20.66 2.48    
GW 84 3 340.00 61.00 128.00 340.00 89.00 175.00 81.0E-3 !  54.71 18.24 2.19    
GW 85 3 340.00 89.00 175.00 340.00 99.00 230.00 81.0E-3 !  55.90 18.63 2.24 444.26 11.29  
GW 86 8 340.00 99.00 230.00 520.00 120.00 230.00 81.0E-3 !  181.22 22.65 7.25    
GW 87 8 340.00 89.00 280.00 520.00 98.00 293.00 81.0E-3 !  180.69 22.59 7.23    
GW 88 8 340.00 61.00 335.00 520.00 76.00 360.00 81.0E-3 !  182.35 22.79 7.29    
GW 89 8 340.00 0.00 389.00 520.00 0.00 400.00 81.0E-3 !  180.34 22.54 7.21    
GW 90 8 340.00 -61.00 335.00 520.00 -76.00 360.00 81.0E-3 !  182.35 22.79 7.29    
GW 91 8 340.00 -89.00 280.00 520.00 -98.00 293.00 81.0E-3 !  180.69 22.59 7.23    
GW 92 8 340.00 -99.00 230.00 520.00 -120.00 230.00 81.0E-3 !  181.22 22.65 7.25    
GW 93 8 340.00 -89.00 175.00 520.00 -110.00 165.00 81.0E-3 !  181.50 22.69 7.26    
GW 94 8 340.00 -61.00 128.00 520.00 -68.00 112.00 81.0E-3 !  180.85 22.61 7.23    
GW 95 8 340.00 0.00 117.00 520.00 0.00 96.00 81.0E-3 !  181.22 22.65 7.25    
GW 96 8 340.00 61.00 128.00 520.00 68.00 112.00 81.0E-3 !  180.85 22.61 7.23    
GW 97 8 340.00 89.00 175.00 520.00 110.00 165.00 81.0E-3 !  181.50 22.69 7.26    
GW 98 3 520.00 120.00 230.00 520.00 98.00 293.00 81.0E-3 !  66.73 22.24 2.67    
GW 99 3 520.00 98.00 293.00 520.00 76.00 360.00 81.0E-3 !  70.52 23.51 2.82    
GW 100 4 520.00 76.00 360.00 520.00 0.00 400.00 81.0E-3 !  85.88 21.47 3.44    
GW 101 4 520.00 0.00 400.00 520.00 -76.00 360.00 81.0E-3 !  85.88 21.47 3.44    
GW 102 3 520.00 -76.00 360.00 520.00 -98.00 293.00 81.0E-3 !  70.52 23.51 2.82    
GW 103 3 520.00 -98.00 293.00 520.00 -120.00 230.00 81.0E-3 !  66.73 22.24 2.67    
GW 104 3 520.00 -120.00 230.00 520.00 -110.00 165.00 81.0E-3 !  65.76 21.92 2.63    
GW 105 3 520.00 -110.00 165.00 520.00 -68.00 112.00 81.0E-3 !  67.62 22.54 2.70    
GW 106 3 520.00 -68.00 112.00 520.00 0.00 96.00 81.0E-3 !  69.86 23.29 2.79    
GW 107 3 520.00 0.00 96.00 520.00 68.00 112.00 81.0E-3 !  69.86 23.29 2.79    
GW 108 3 520.00 68.00 112.00 520.00 110.00 165.00 81.0E-3 !  67.62 22.54 2.70    
GW 109 3 520.00 110.00 165.00 520.00 120.00 230.00 81.0E-3 !  65.76 21.92 2.63 852.74 21.67  
GW 110 3 520.00 120.00 230.00 913.00 127.00 231.00 81.0E-3 !  393.06 131.02 2.62    
GW 111 3 520.00 98.00 293.00 913.00 110.00 295.00 81.0E-3 !  393.19 131.06 2.62    
GW 112 3 520.00 76.00 360.00 913.00 64.00 341.00 81.0E-3 !  393.64 131.21 2.62    
GW 113 3 520.00 0.00 400.00 913.00 0.00 358.00 81.0E-3 !  395.24 131.75 2.63    
GW 114 3 520.00 -76.00 360.00 913.00 -64.00 341.00 81.0E-3 !  393.64 131.21 2.62    
GW 115 3 520.00 -98.00 293.00 913.00 -110.00 295.00 81.0E-3 !  393.19 131.06 2.62    
GW 116 3 520.00 -120.00 230.00 913.00 -127.00 231.00 81.0E-3 !  393.06 131.02 2.62    
GW 117 3 520.00 -110.00 165.00 913.00 -115.00 165.00 81.0E-3 !  393.03 131.01 2.62    
GW 118 3 520.00 -68.00 112.00 913.00 -73.00 113.00 81.0E-3 !  393.03 131.01 2.62    
GW 119 3 520.00 0.00 96.00 913.00 0.00 91.00 81.0E-3 !  393.03 131.01 2.62    
GW 120 3 520.00 68.00 112.00 913.00 73.00 113.00 81.0E-3 !  393.03 131.01 2.62    
GW 121 3 520.00 110.00 165.00 913.00 115.00 165.00 81.0E-3 !  393.03 131.01 2.62    
GW 122 3 913.00 127.00 231.00 913.00 110.00 295.00 81.0E-3 ! Wing leading edge 66.22 22.07 2.65    
GW 123 3 913.00 110.00 295.00 913.00 64.00 341.00 81.0E-3 !  65.05 21.68 2.60    
GW 124 3 913.00 64.00 341.00 913.00 0.00 358.00 81.0E-3 !  66.22 22.07 2.65    
GW 125 3 913.00 0.00 358.00 913.00 -64.00 341.00 81.0E-3 !  66.22 22.07 2.65    
GW 126 3 913.00 -64.00 341.00 913.00 -110.00 295.00 81.0E-3 !  65.05 21.68 2.60    
GW 127 3 913.00 -110.00 295.00 913.00 -127.00 231.00 81.0E-3 !  66.22 22.07 2.65    
GW 128 3 913.00 -127.00 231.00 913.00 -115.00 165.00 81.0E-3 !  67.08 22.36 2.68    
GW 129 3 913.00 -115.00 165.00 913.00 -73.00 113.00 81.0E-3 !  66.84 22.28 2.67    
GW 130 4 913.00 -73.00 113.00 913.00 0.00 91.00 81.0E-3 !  76.24 19.06 3.05    
GW 131 4 913.00 0.00 91.00 913.00 73.00 113.00 81.0E-3 !  76.24 19.06 3.05    
GW 132 3 913.00 73.00 113.00 913.00 115.00 165.00 81.0E-3 !  66.84 22.28 2.67    
GW 133 3 913.00 115.00 165.00 913.00 127.00 231.00 81.0E-3 !  67.08 22.36 2.68 815.30 20.71  
GW 134 8 913.00 -115.00 165.00 1105.00 -115.00 165.00 81.0E-3 ! Leading edge to rear connection 192.00 24.00 7.68    
GW 135,8, 913.00,127.00,231.00, 1105.00,127.00,231.00, 81.0E-3 !  192.13 24.02 7.69    
GW 136,8, 913.00,110,295.00, 1105.00,110.00,295.00, 81.0E-3 !  192.39 24.05 7.70    
GW 137,8, 913.00,64,341.00, 1105.00,64.00,341.00, 81.0E-3 !  193.31 24.16 7.73    
GW 138,8, 913.00,0.00,358, 1105.00,0.00,358.00, 81.0E-3 !  196.54 24.57 7.86    
GW 139,8, 913.00,-64,341, 1105.00,-64.00,341.00, 81.0E-3 !  193.31 24.16 7.73    
GW 140,8, 913.00,-110,295.00, 1105.00,-110.00,295.00, 81.0E-3 !  192.39 24.05 7.70    
GW 141,8, 913.00,-127.00,231.00, 1105.00,-127.00,231.00, 81.0E-3 !  192.13 24.02 7.69                                                                                                                                                                          
GW 143,8, 913.00,-73,113, 1105.00,-73.00,113.00, 81.0E-3 !  192.07 24.01 7.68    
GW 144,8, 913.00,0.00,91, 1105.00,0.00,91.00, 81.0E-3 !  192.07 24.01 7.68    
GW 145,8, 913.00,73,113.00, 1105.00,73.00,113.00, 81.0E-3 !  192.07 24.01 7.68    
GW 146,8, 913.00,115.00,165.00, 1105.00,115.00,165.00, 81.0E-3 !  192.07 24.01 7.68    
GW 147 3 1105.00 127.00 231.00 1105.00 110.00 295.00 81.0E-3 ! Rear connection pt 66.22 22.07 2.65    
GW 148 3 1105.00 110.00 295.00 1105.00 64.00 341.00 81.0E-3 ! Mid wing 65.05 21.68 2.60    
GW 149 3 1105.00 64.00 341.00 1105.00 0.00 358.00 81.0E-3 !  66.22 22.07 2.65    
GW 150 3 1105.00 0.00 358.00 1105.00 -64.00 341.00 81.0E-3 !  66.22 22.07 2.65    
GW 151 3 1105.00 -64.00 341.00 1105.00 -110.00 295.00 81.0E-3 !  65.05 21.68 2.60    
GW 152 3 1105.00 -110.00 295.00 1105.00 -127.00 231.00 81.0E-3 !  66.22 22.07 2.65    
GW 153 3 1105.00 -127.00 231.00 1105.00 -115.00 165.00 81.0E-3 !  67.08 22.36 2.68    
GW 154 3 1105.00 -115.00 165.00 1105.00 -73.00 113.00 81.0E-3 !  66.84 22.28 2.67    
GW 155 4 1105.00 -73.00 113.00 1105.00 0.00 91.00 81.0E-3 !  76.24 19.06 3.05    
GW 156 4 1105.00 0.00 91.00 1105.00 73.00 113.00 81.0E-3 !  76.24 19.06 3.05    
GW 157 3 1105.00 73.00 113.00 1105.00 115.00 165.00 81.0E-3 !  66.84 22.28 2.67    
GW 158 3 1105.00 115.00 165.00 1105.00 127.00 231.00 81.0E-3 !  67.08 22.36 2.68 815.30 20.71  
GW 159 3 1105.00 127.00 231.00 1420.00 127.00 230.00 81.0E-3 ! Next axial section 315.00 105.00 2.10    
GW 160 3 1105.00 110.00 295.00 1420.00 112.00 295.00 81.0E-3 ! Mid wing to trailing edge 315.01 105.00 2.10    
GW 161 3 1105.00 64.00 341.00 1420.00 65.00 343.00 81.0E-3 !  315.01 105.00 2.10    
GW 162 3 1105.00 0.00 358.00 1420.00 0.00 359.00 81.0E-3 !  315.00 105.00 2.10    
GW 163 3 1105.00 -64.00 341.00 1420.00 -65.00 343.00 81.0E-3 !  315.01 105.00 2.10    
GW 164 3 1105.00 -110.00 295.00 1420.00 -112.00 295.00 81.0E-3 !  315.01 105.00 2.10    
GW 165 3 1105.00 -127.00 231.00 1420.00 -127.00 230.00 81.0E-3 !  315.00 105.00 2.10    
GW 166 3 1105.00 -115.00 165.00 1420.00 -115.00 164.00 81.0E-3 !  315.00 105.00 2.10    
GW 167 3 1105.00 -73.00 113.00 1420.00 -69.00 110.00 81.0E-3 !  315.04 105.01 2.10    
GW 168 3 1105.00 0.00 91.00 1420.00 0.00 91.00 81.0E-3 !  315.00 105.00 2.10    
GW 169 3 1105.00 73.00 113.00 1420.00 69.00 110.00 81.0E-3 !  315.04 105.01 2.10    
GW 170 3 1105.00 115.00 165.00 1420.00 115.00 164.00 81.0E-3 !  315.00 105.00 2.10    
GW 171 3 1420.00 127.00 230.00 1420.00 112.00 295.00 81.0E-3 ! Wing traling edge (1420) 66.71 22.24 2.67    
GW 172 3 1420.00 112.00 295.00 1420.00 65.00 343.00 81.0E-3 !  67.18 22.39 2.69    
GW 173 3 1420.00 65.00 343.00 1420.00 0.00 359.00 81.0E-3 !  66.94 22.31 2.68    
GW 174 3 1420.00 0.00 359.00 1420.00 -65.00 343.00 81.0E-3 !  66.94 22.31 2.68    
GW 175 3 1420.00 -65.00 343.00 1420.00 -112.00 295.00 81.0E-3 !  67.18 22.39 2.69    
GW 176 3 1420.00 -112.00 295.00 1420.00 -127.00 230.00 81.0E-3 !  66.71 22.24 2.67    
GW 177 3 1420.00 -127.00 230.00 1420.00 -115.00 164.00 81.0E-3 !  67.08 22.36 2.68    
GW 178 3 1420.00 -115.00 164.00 1420.00 -69.00 110.00 81.0E-3 !  70.94 23.65 2.84    
GW 179 3 1420.00 -69.00 110.00 1420.00 0.00 91.00 81.0E-3 !  71.57 23.86 2.86    
GW 180 3 1420.00 0.00 91.00 1420.00 69.00 110.00 81.0E-3 !  71.57 23.86 2.86    
GW 181 3 1420.00 69.00 110.00 1420.00 115.00 164.00 81.0E-3 !  70.94 23.65 2.84    
GW 182 3 1420.00 115.00 164.00 1420.00 127.00 230.00 81.0E-3 !  67.08 22.36 2.68 820.84 20.85  
GW 183 3 1420.00 127.00 230.00 1800.00 127.00 230.00 81.0E-3 !  380.00 126.67 2.53    
GW 184 3 1420.00 112.00 295.00 1800.00 112.00 295.00 81.0E-3 !  380.00 126.67 2.53    
GW 185 3 1420.00 65.00 343.00 1800.00 65.00 343.00 81.0E-3 !  380.00 126.67 2.53    
GW 186 3 1420.00 0.00 359.00 1800.00 0.00 359.00 81.0E-3 !  380.00 126.67 2.53    
GW 187 3 1420.00 -65.00 343.00 1800.00 -65.00 343.00 81.0E-3 !  380.00 126.67 2.53    
GW 188 3 1420.00 -112.00 295.00 1800.00 -112.00 295.00 81.0E-3 !  380.00 126.67 2.53    
GW 189 3 1420.00 -127.00 230.00 1800.00 -127.00 230.00 81.0E-3 !  380.00 126.67 2.53    
GW 190 3 1420.00 -115.00 164.00 1800.00 -115.00 164.00 81.0E-3 !  380.00 126.67 2.53    
GW 191 3 1420.00 -69.00 110.00 1800.00 -69.00 110.00 81.0E-3 !  380.00 126.67 2.53    
GW 192 3 1420.00 0.00 91.00 1800.00 0.00 91.00 81.0E-3 !  380.00 126.67 2.53    
GW 193 3 1420.00 69.00 110.00 1800.00 69.00 110.00 81.0E-3 !  380.00 126.67 2.53    
GW 194 3 1420.00 115.00 164.00 1800.00 115.00 164.00 81.0E-3 !  380.00 126.67 2.53    
GW 195 3 1800.00 127.00 230.00 1800.00 112.00 295.00 81.0E-3 ! rear mid (1800) 66.71 22.24 2.67    
GW 196 3 1800.00 112.00 295.00 1800.00 65.00 343.00 81.0E-3 !  67.18 22.39 2.69    
GW 197 3 1800.00 65.00 343.00 1800.00 0.00 359.00 81.0E-3 !  66.94 22.31 2.68    
GW 198 3 1800.00 0.00 359.00 1800.00 -65.00 343.00 81.0E-3 !  66.94 22.31 2.68    
GW 199 3 1800.00 -65.00 343.00 1800.00 -112.00 295.00 81.0E-3 !  67.18 22.39 2.69    
GW 200 3 1800.00 -112.00 295.00 1800.00 -127.00 230.00 81.0E-3 !  66.71 22.24 2.67    
GW 201 3 1800.00 -127.00 230.00 1800.00 -115.00 164.00 81.0E-3 !  67.08 22.36 2.68    
GW 202 3 1800.00 -115.00 164.00 1800.00 -69.00 110.00 81.0E-3 !  70.94 23.65 2.84    
GW 203 3 1800.00 -69.00 110.00 1800.00 0.00 91.00 81.0E-3 !  71.57 23.86 2.86    
GW 204 3 1800.00 0.00 91.00 1800.00 69.00 110.00 81.0E-3 !  71.57 23.86 2.86    
GW 205 3 1800.00 69.00 110.00 1800.00 115.00 164.00 81.0E-3 !  70.94 23.65 2.84    
GW 206 3 1800.00 115.00 164.00 1800.00 127.00 230.00 81.0E-3 !  67.08 22.36 2.68 820.84 20.85  
GW 207 3 1800.00 127.00 230.00 2200.00 115.00 230.00 81.0E-3 !  400.18 133.39 2.67    
GW 208 3 1800.00 112.00 295.00 2200.00 105.00 290.00 81.0E-3 !  400.09 133.36 2.67    
GW 209 3 1800.00 65.00 343.00 2200.00 65.00 343.00 81.0E-3 !  400.00 133.33 2.67    
GW 210 3 1800.00 0.00 359.00 2200.00 0.00 364.00 81.0E-3 !  400.03 133.34 2.67    
GW 211 3 1800.00 -65.00 343.00 2200.00 -65.00 343.00 81.0E-3 !  400.00 133.33 2.67    
GW 212 3 1800.00 -112.00 295.00 2200.00 -105.00 290.00 81.0E-3 !  400.09 133.36 2.67    
GW 213 3 1800.00 -127.00 230.00 2200.00 -115.00 230.00 81.0E-3 !  400.18 133.39 2.67    
GW 214 3 1800.00 -115.00 164.00 2200.00 -84.00 182.00 81.0E-3 !  401.60 133.87 2.68    
GW 215 3 1800.00 -69.00 110.00 2200.00 -42.00 158.00 81.0E-3 !  403.77 134.59 2.69    
GW 216 3 1800.00 0.00 91.00 2200.00 0.00 155.00 81.0E-3 !  405.09 135.03 2.70    
GW 217 3 1800.00 69.00 110.00 2200.00 42.00 158.00 81.0E-3 !  403.77 134.59 2.69    
GW 218 3 1800.00 115.00 164.00 2200.00 84.00 182.00 81.0E-3 !  401.60 133.87 2.68    
GW 219 3 2200.00 115.00 230.00 2200.00 105.00 290.00 81.0E-3 !  60.83 20.28 2.43    
GW 220 3 2200.00 105.00 290.00 2200.00 65.00 343.00 81.0E-3 !  66.40 22.13 2.66    
GW 221 3 2200.00 65.00 343.00 2200.00 0.00 364.00 81.0E-3 !  68.31 22.77 2.73    
GW 222 3 2200.00 0.00 364.00 2200.00 -65.00 343.00 81.0E-3 !  68.31 22.77 2.73    
GW 223 3 2200.00 -65.00 343.00 2200.00 -105.00 290.00 81.0E-3 !  66.40 22.13 2.66    
GW 224 3 2200.00 -105.00 290.00 2200.00 -115.00 230.00 81.0E-3 !  60.83 20.28 2.43    
GW 225 3 2200.00 -115.00 230.00 2200.00 -84.00 182.00 81.0E-3 !  57.14 19.05 2.29    
GW 226 2 2200.00 -84.00 182.00 2200.00 -42.00 158.00 81.0E-3 !  48.37 24.19 1.93    
GW 227 2 2200.00 -42.00 158.00 2200.00 0.00 155.00 81.0E-3 !  42.11 21.06 1.68    
GW 228 2 2200.00 0.00 155.00 2200.00 42.00 158.00 81.0E-3 !  42.11 21.06 1.68    
GW 229 2 2200.00 42.00 158.00 2200.00 84.00 182.00 81.0E-3 !  48.37 24.19 1.93    
GW 230 3 2200.00 84.00 182.00 2200.00 115.00 230.00 81.0E-3 !  57.14 19.05 2.29 686.32 17.44  
GW 231 10 2200.00 115.00 230.00 2400.00 70.00 330.00 81.0E-3 !  228.09 22.81 9.12    
GW 232 9 2200.00 105.00 290.00 2400.00 44.00 355.00 81.0E-3 !  218.97 24.33 8.76    
GW 233 9 2200.00 65.00 343.00 2400.00 20.00 364.00 81.0E-3 !  206.07 22.90 8.24    
GW 234 2 2200.00 0.00 364.00 2245.00 0.00 366.00 81.0E-3 ! Split for Vstab attach 45.04 22.52 1.80    
GW 235 7 2245.00 0.00 366.00 2400.00 0.00 366.00 81.0E-3 ! Split for Vstab attach 155.00 22.14 6.20    
GW 236 9 2200.00 -65.00 343.00 2400.00 -20.00 364.00 81.0E-3 !  206.07 22.90 8.24    
GW 237 9 2200.00 -105.00 290.00 2400.00 -44.00 355.00 81.0E-3 !  218.97 24.33 8.76    
GW 238 10 2200.00 -115.00 230.00 2400.00 -70.00 330.00 81.0E-3 !  228.09 22.81 9.12    
GW 239 9 2200.00 -84.00 182.00 2400.00 -82.00 283.00 81.0E-3 !  224.06 24.90 8.96    
GW 240 9 2200.00 -42.00 158.00 2400.00 -65.00 217.00 81.0E-3 !  209.79 23.31 8.39    
GW 241 9 2200.00 0.00 155.00 2400.00 0.00 192.00 81.0E-3 !  203.39 22.60 8.14    
GW 242 9 2200.00 42.00 158.00 2400.00 65.00 217.00 81.0E-3 !  209.79 23.31 8.39    
GW 243 9 2200.00 84.00 182.00 2400.00 82.00 283.00 81.0E-3 !  224.06 24.90 8.96    
GW 244 2 2400.00 70.00 330.00 2400.00 44.00 355.00 81.0E-3 !  36.07 18.04 1.44    
GW 245 2 2400.00 44.00 355.00 2400.00 20.00 364.00 81.0E-3 !  25.63 12.82 1.03    
GW 246 1 2400.00 20.00 364.00 2400.00 0.00 366.00 81.0E-3 !  20.10 20.10 0.80    
GW 247 1 2400.00 0.00 366.00 2400.00 -20.00 364.00 81.0E-3 !  20.10 20.10 0.80    
GW 248 2 2400.00 -20.00 364.00 2400.00 -44.00 355.00 81.0E-3 !  25.63 12.82 1.03    
GW 249 2 2400.00 -44.00 355.00 2400.00 -70.00 330.00 81.0E-3 !  36.07 18.04 1.44    
GW 250 2 2400.00 -70.00 330.00 2400.00 -82.00 283.00 81.0E-3 !  48.51 24.26 1.94    
GW 251 3 2400.00 -82.00 283.00 2400.00 -65.00 217.00 81.0E-3 !  68.15 22.72 2.73    
GW 252 3 2400.00 -65.00 217.00 2400.00 0.00 192.00 81.0E-3 !  69.64 23.21 2.79    
GW 253 3 2400.00 0.00 192.00 2400.00 65.00 217.00 81.0E-3 !  69.64 23.21 2.79    
GW 254 3 2400.00 65.00 217.00 2400.00 82.00 283.00 81.0E-3 !  68.15 22.72 2.73    
GW 255 2 2400.00 82.00 283.00 2400.00 70.00 330.00 81.0E-3 !  48.51 24.26 1.94 536.20 13.62  
GW 256 9 2400.00 70.00 330.00 2600.00 46.00 330.00 81.0E-3 !  201.43 22.38 8.06    
GW 257 9 2400.00 44.00 355.00 2600.00 35.00 350.00 81.0E-3 !  200.26 22.25 8.01    
GW 258 5 2400.00 20.00 364.00 2509.00 29.00 366.00 81.0E-3 !  109.39 21.88 4.38    
GW 259 4 2509.00 29.00 366.00 2600.00 19.00 362.00 81.0E-3 !  91.64 22.91 3.67    
GW 260 8 2400.00 0.00 366.00 2600.00 0.00 365.00 81.0E-3 !  200.00 25.00 8.00    
GW 261 5 2400.00 -20.00 364.00 2509.00 -29.00 366.00 81.0E-3 !  109.39 21.88 4.38    
GW 262 4 2509.00 -29.00 366.00 2600.00 -19.00 362.00 81.0E-3 !  91.64 22.91 3.67    
GW 263 9 2400.00 -44.00 355.00 2600.00 -35.00 350.00 81.0E-3 !  200.26 22.25 8.01    
GW 264 9 2400.00 -70.00 330.00 2600.00 -46.00 330.00 81.0E-3 !  201.43 22.38 8.06    
GW 265 9 2400.00 -82.00 283.00 2600.00 -50.00 300.00 81.0E-3 !  203.26 22.58 8.13    
GW 266 9 2400.00 -65.00 217.00 2600.00 -43.00 257.00 81.0E-3 !  205.14 22.79 8.21    
GW 267 9 2400.00 0.00 192.00 2600.00 0.00 235.00 81.0E-3 !  204.57 22.73 8.18    
GW 268 9 2400.00 65.00 217.00 2600.00 43.00 257.00 81.0E-3 !  205.14 22.79 8.21    
GW 269 9 2400.00 82.00 283.00 2600.00 50.00 300.00 81.0E-3 !  203.26 22.58 8.13    
GW 270 1 2600.00 46.00 330.00 2600.00 35.00 350.00 81.0E-3 !  22.83 22.83 0.91    
GW 271 1 2600.00 35.00 350.00 2600.00 19.00 362.00 81.0E-3 !  20.00 20.00 0.80    
GW 272 1 2600.00 19.00 362.00 2600.00 0.00 365.00 81.0E-3 !  19.24 19.24 0.77    
GW 273 1 2600.00 0.00 365.00 2600.00 -19.00 362.00 81.0E-3 !  19.24 19.24 0.77    
GW 274 1 2600.00 -19.00 362.00 2600.00 -35.00 350.00 81.0E-3 !  20.00 20.00 0.80    
GW 275 1 2600.00 -35.00 350.00 2600.00 -46.00 330.00 81.0E-3 !  22.83 22.83 0.91    
GW 276 2 2600.00 -46.00 330.00 2600.00 -50.00 300.00 81.0E-3 !  30.27 15.14 1.21    
GW 277 2 2600.00 -50.00 300.00 2600.00 -43.00 257.00 81.0E-3 !  43.57 21.79 1.74    
GW 278 2 2600.00 -43.00 257.00 2600.00 0.00 235.00 81.0E-3 !  48.30 24.15 1.93    
GW 279 2 2600.00 0.00 235.00 2600.00 43.00 257.00 81.0E-3 !  48.30 24.15 1.93    
GW 280 2 2600.00 43.00 257.00 2600.00 50.00 300.00 81.0E-3 !  43.57 21.79 1.74    
GW 281 2 2600.00 50.00 300.00 2600.00 46.00 330.00 81.0E-3 !  30.27 15.14 1.21 368.42 9.36  
GW 282 6 2600.00 46.00 330.00 2738.00 24.00 330.00 81.0E-3 !  139.74 23.29 5.59    
GW 283 6 2600.00 35.00 350.00 2738.00 22.00 343.00 81.0E-3 !  138.79 23.13 5.55    
GW 284 6 2600.00 19.00 362.00 2738.00 15.00 357.00 81.0E-3 !  138.15 23.03 5.53    
GW 285 6 2600.00 0.00 365.00 2738.00 0.00 365.00 81.0E-3 !  138.00 23.00 5.52    
GW 286 6 2600.00 -19.00 362.00 2738.00 -15.00 357.00 81.0E-3 !  138.15 23.03 5.53    
GW 287 6 2600.00 -35.00 350.00 2738.00 -22.00 343.00 81.0E-3 !  138.79 23.13 5.55    
GW 288 6 2600.00 -46.00 330.00 2738.00 -24.00 330.00 81.0E-3 !  139.74 23.29 5.59    
GW 289 6 2600.00 -50.00 300.00 2738.00 -50.00 300.00 81.0E-3 !  138.00 23.00 5.52    
GW 290 6 2600.00 -43.00 257.00 2738.00 -44.00 256.00 81.0E-3 !  138.01 23.00 5.52    
GW 291 6 2600.00 0.00 235.00 2738.00 0.00 235.00 81.0E-3 !  138.00 23.00 5.52    
GW 292 6 2600.00 43.00 257.00 2738.00 44.00 256.00 81.0E-3 !  138.01 23.00 5.52    
GW 293 6 2600.00 50.00 300.00 2738.00 50.00 300.00 81.0E-3 !  138.00 23.00 5.52    
GW 294 1 2738.00 24.00 330.00 2738.00 22.00 343.00 81.0E-3 !  13.15 13.15 0.53    
GW 295 1 2738.00 22.00 343.00 2738.00 15.00 357.00 81.0E-3 !  15.65 15.65 0.63    
GW 296 1 2738.00 15.00 357.00 2738.00 0.00 365.00 81.0E-3 !  17.00 17.00 0.68    
GW 297 1 2738.00 0.00 365.00 2738.00 -15.00 357.00 81.0E-3 !  17.00 17.00 0.68    
GW 298 1 2738.00 -15.00 357.00 2738.00 -22.00 343.00 81.0E-3 !  15.65 15.65 0.63    
GW 299 1 2738.00 -22.00 343.00 2738.00 -24.00 330.00 81.0E-3 !  13.15 13.15 0.53    
GW 300 2 2738.00 -24.00 330.00 2738.00 -50.00 300.00 81.0E-3 !  39.70 19.85 1.59    
GW 301 2 2738.00 -50.00 300.00 2738.00 -44.00 256.00 81.0E-3 !  44.41 22.21 1.78    
GW 302 2 2738.00 -44.00 256.00 2738.00 0.00 235.00 81.0E-3 !  48.75 24.38 1.95    
GW 303 2 2738.00 0.00 235.00 2738.00 44.00 256.00 81.0E-3 !  48.75 24.38 1.95    
GW 304 2 2738.00 44.00 256.00 2738.00 50.00 300.00 81.0E-3 !  44.41 22.21 1.78    
GW 305 2 2738.00 50.00 300.00 2738.00 24.00 330.00 81.0E-3 !  39.70 19.85 1.59 357.32 9.08  
GW 306 3 2738.00 24.00 330.00 2792.00 0.00 330.00 81.0E-3 !  59.09 19.70 2.36    
GW 307 3 2738.00 22.00 343.00 2792.00 0.00 330.00 81.0E-3 !  59.74 19.91 2.39    
GW 308 3 2738.00 15.00 357.00 2792.00 0.00 330.00 81.0E-3 !  62.21 20.74 2.49    
GW 309 3 2738.00 0.00 365.00 2792.00 0.00 330.00 81.0E-3 !  64.35 21.45 2.57    
GW 310 3 2738.00 -15.00 357.00 2792.00 0.00 330.00 81.0E-3 !  62.21 20.74 2.49    
GW 311 3 2738.00 -22.00 343.00 2792.00 0.00 330.00 81.0E-3 !  59.74 19.91 2.39    
GW 312 3 2738.00 -24.00 330.00 2792.00 0.00 330.00 81.0E-3 !  59.09 19.70 2.36    
GW 313 4 2738.00 -50.00 300.00 2792.00 0.00 330.00 81.0E-3 !  79.47 19.87 3.18    
GW 314 5 2738.00 -44.00 256.00 2792.00 0.00 330.00 81.0E-3 !  101.63 20.33 4.07    
GW 315 5 2738.00 0.00 235.00 2792.00 0.00 330.00 81.0E-3 !  109.27 21.85 4.37    
GW 316 5 2738.00 44.00 256.00 2792.00 0.00 330.00 81.0E-3 !  101.63 20.33 4.07    
GW 317 4 2738.00 50.00 300.00 2792.00 0.00 330.00 81.0E-3 ! End of Body 79.47 19.87 3.18    
GW 318 2 2245.00 0.00 366.00 2273.00 23.00 366.00 81.0E-3 ! Begin Vert Stab 36.24 18.12 1.45    
GW 319 5 2273.00 23.00 366.00 2389.00 30.00 366.00 81.0E-3 !  116.21 23.24 4.65    
GW 320 5 2389.00 30.00 366.00 2509.00 29.00 366.00 81.0E-3 !  120.00 24.00 4.80    
GW 321 3 2509.00 29.00 366.00 2568.00 21.00 366.00 81.0E-3 !  59.54 19.85 2.38    
GW 322 6 2568.00 21.00 366.00 2706.00 0.00 366.00 81.0E-3 !  139.59 23.27 5.58    
GW 323 6 2706.00 0.00 366.00 2568.00 -21.00 366.00 81.0E-3 !  139.59 23.27 5.58    
GW 324 3 2568.00 -21.00 366.00 2509.00 -29.00 366.00 81.0E-3 !  59.54 19.85 2.38    
GW 325 5 2509.00 -29.00 366.00 2389.00 -30.00 366.00 81.0E-3 !  120.00 24.00 4.80    
GW 326 5 2389.00 -30.00 366.00 2273.00 -23.00 366.00 81.0E-3 !  116.21 23.24 4.65    
GW 327 2 2273.00 -23.00 366.00 2245.00 0.00 366.00 81.0E-3 !  36.24 18.12 1.45    
GW 328 2 2706.00 0.00 752.00 2753.00 7.00 752.00 81.0E-3 !  47.52 23.76 1.90    
GW 329 2 2753.00 7.00 752.00 2792.00 7.00 752.00 81.0E-3 !  39.00 19.50 1.56    
GW 330 1 2792.00 7.00 752.00 2816.00 5.00 752.00 81.0E-3 !  24.08 24.08 0.96    
GW 331 2 2816.00 5.00 752.00 2863.00 0.00 752.00 81.0E-3 !  47.27 23.64 1.89    
GW 332 2 2863.00 0.00 752.00 2816.00 -5.00 752.00 81.0E-3 !  47.27 23.64 1.89    
GW 333 1 2816.00 -5.00 752.00 2792.00 -7.00 752.00 81.0E-3 !  24.08 24.08 0.96    
GW 334 2 2792.00 -7.00 752.00 2753.00 -7.00 752.00 81.0E-3 !  39.00 19.50 1.56    
GW 335 2 2753.00 -7.00 752.00 2706.00 0.00 752.00 81.0E-3 !  47.52 23.76 1.90    
GW 336 4 2245.00 0.00 366.00 2706.00 0.00 752.00 81.0E-3 !  601.26 150.32 3.01    
GW 337 3 2273.00 23.00 366.00 2706.00 0.00 752.00 81.0E-3 !  580.53 193.51 2.90    
GW 338 3 2389.00 30.00 366.00 2753.00 7.00 752.00 81.0E-3 !  531.06 177.02 2.66    
GW 339 4 2509.00 29.00 366.00 2792.00 7.00 752.00 81.0E-3 !  479.13 119.78 3.19    
GW 340 4 2568.00 21.00 366.00 2816.00 5.00 752.00 81.0E-3 !  459.08 114.77 3.06    
GW 341 3 2706.00 0.00 366.00 2863.00 0.00 752.00 81.0E-3 !  416.71 138.90 2.78    
GW 342 3 2273.00 -23.00 366.00 2706.00 0.00 752.00 81.0E-3 !  580.53 193.51 2.90    