CM This file generated by the Univ. of Stellenbosch WIREGRID program, 
CM with commas inserted after the GW terms.
CM
CM With generation of Near Electric field.
CM
CM 'Remove' all field points above 100 V/m by using 'Delete' key.
CM and enable structure in 'show' menu on 'pattern' form and no-
CM tice the field-strength with for instance 100 watts of power.
CE
GW,0,9,0.00000,0.00000,0.00000,2.69000,0.00000,0.00000,0.047746
GW,0,3,2.69000,0.00000,0.00000,2.69000,0.00000,0.79000,0.047746
GW,0,9,2.69000,0.00000,0.79000,0.00000,0.00000,0.79000,0.047746
GW,0,3,0.00000,0.00000,0.79000,0.00000,0.00000,0.00000,0.047746
GW,1,4,2.69000,0.00000,0.79000,3.84000,0.00000,0.67000,0.047746
GW,1,3,3.84000,0.00000,0.67000,3.84000,0.00000,0.00000,0.047746
GW,1,4,3.84000,0.00000,0.00000,2.69000,0.00000,0.00000,0.047746
GW,2,3,3.84000,0.00000,0.67000,3.84000,0.84000,0.67000,0.047746
GW,2,4,3.84000,0.84000,0.67000,2.69000,0.84000,0.79000,0.047746
GW,2,3,2.69000,0.84000,0.79000,2.69000,0.00000,0.79000,0.047746
GW,3,3,3.84000,0.00000,0.00000,3.84000,0.84000,0.00000,0.047746
GW,3,3,3.84000,0.84000,0.00000,3.84000,0.84000,0.67000,0.047746
GW,4,6,0.48000,0.84000,1.25000,2.14000,0.84000,1.25000,0.047746
GW,4,3,2.14000,0.84000,1.25000,2.14000,0.00000,1.25000,0.047746
GW,4,6,2.14000,0.00000,1.25000,0.48000,0.00000,1.25000,0.047746
GW,4,3,0.48000,0.00000,1.25000,0.48000,0.84000,1.25000,0.047746
GW,5,3,0.00000,0.00000,0.00000,0.00000,0.84000,0.00000,0.047746
GW,5,3,0.00000,0.84000,0.00000,0.00000,0.84000,0.79000,0.047746
GW,5,3,0.00000,0.84000,0.79000,0.00000,0.00000,0.79000,0.047746
GW,6,3,0.00000,0.00000,0.79000,0.48000,0.00000,1.25000,0.047746
GW,7,2,1.40000,0.00000,0.79000,1.40000,0.00000,1.25000,0.047746
GW,8,3,2.14000,0.00000,1.25000,2.69000,0.00000,0.79000,0.047746
GW,9,3,-0.00000,1.68000,-0.00000,-0.00000,1.68000,0.79000,0.047746
GW,9,9,-0.00000,1.68000,0.79000,2.69000,1.68000,0.79000,0.047746
GW,9,3,2.69000,1.68000,0.79000,2.69000,1.68000,-0.00000,0.047746
GW,9,9,2.69000,1.68000,-0.00000,-0.00000,1.68000,-0.00000,0.047746
GW,10,4,2.69000,1.68000,-0.00000,3.84000,1.68000,-0.00000,0.047746
GW,10,3,3.84000,1.68000,-0.00000,3.84000,1.68000,0.67000,0.047746
GW,10,4,3.84000,1.68000,0.67000,2.69000,1.68000,0.79000,0.047746
GW,11,3,2.69000,1.68000,0.79000,2.69000,0.84000,0.79000,0.047746
GW,11,3,3.84000,0.84000,0.67000,3.84000,1.68000,0.67000,0.047746
GW,12,3,3.84000,0.84000,-0.00000,3.84000,1.68000,-0.00000,0.047746
GW,13,3,2.14000,0.84000,1.25000,2.14000,1.68000,1.25000,0.047746
GW,13,6,2.14000,1.68000,1.25000,0.48000,1.68000,1.25000,0.047746
GW,13,3,0.48000,1.68000,1.25000,0.48000,0.84000,1.25000,0.047746
GW,14,3,-0.00000,1.68000,-0.00000,-0.00000,0.84000,-0.00000,0.047746
GW,14,3,-0.00000,0.84000,0.79000,-0.00000,1.68000,0.79000,0.047746
GW,15,3,-0.00000,1.68000,0.79000,0.48000,1.68000,1.25000,0.047746
GW,16,2,1.40000,1.68000,0.79000,1.40000,1.68000,1.25000,0.047746
GW,17,3,2.14000,1.68000,1.25000,2.69000,1.68000,0.79000,0.047746
GW,18,3,2.69000,0.00000,1.54000,2.69000,0.00000,0.79000,0.005000
GW,0,1,0.00000,0.00000,0.26333,0.29889,0.00000,0.26333,0.047746
GW,0,1,0.29889,0.00000,0.26333,0.59778,0.00000,0.26333,0.047746
GW,0,1,0.59778,0.00000,0.26333,0.89667,0.00000,0.26333,0.047746
GW,0,1,0.89667,0.00000,0.26333,1.19556,0.00000,0.26333,0.047746
GW,0,1,1.19556,0.00000,0.26333,1.49444,0.00000,0.26333,0.047746
GW,0,1,1.49444,0.00000,0.26333,1.79333,0.00000,0.26333,0.047746
GW,0,1,1.79333,0.00000,0.26333,2.09222,0.00000,0.26333,0.047746
GW,0,1,2.09222,0.00000,0.26333,2.39111,0.00000,0.26333,0.047746
GW,0,1,2.39111,0.00000,0.26333,2.69000,0.00000,0.26333,0.047746
GW,0,1,0.00000,0.00000,0.52667,0.29889,0.00000,0.52667,0.047746
GW,0,1,0.29889,0.00000,0.52667,0.59778,0.00000,0.52667,0.047746
GW,0,1,0.59778,0.00000,0.52667,0.89667,0.00000,0.52667,0.047746
GW,0,1,0.89667,0.00000,0.52667,1.19556,0.00000,0.52667,0.047746
GW,0,1,1.19556,0.00000,0.52667,1.49444,0.00000,0.52667,0.047746
GW,0,1,1.49444,0.00000,0.52667,1.79333,0.00000,0.52667,0.047746
GW,0,1,1.79333,0.00000,0.52667,2.09222,0.00000,0.52667,0.047746
GW,0,1,2.09222,0.00000,0.52667,2.39111,0.00000,0.52667,0.047746
GW,0,1,2.39111,0.00000,0.52667,2.69000,0.00000,0.52667,0.047746
GW,0,3,0.29889,0.00000,0.00000,0.29889,0.00000,0.79000,0.047746
GW,0,3,0.59778,0.00000,0.00000,0.59778,0.00000,0.79000,0.047746
GW,0,3,0.89667,0.00000,0.00000,0.89667,0.00000,0.79000,0.047746
GW,0,3,1.19556,0.00000,0.00000,1.19556,0.00000,0.79000,0.047746
GW,0,3,1.49444,0.00000,0.00000,1.49444,0.00000,0.79000,0.047746
GW,0,3,1.79333,0.00000,0.00000,1.79333,0.00000,0.79000,0.047746
GW,0,3,2.09222,0.00000,0.00000,2.09222,0.00000,0.79000,0.047746
GW,0,3,2.39111,0.00000,0.00000,2.39111,0.00000,0.79000,0.047746
GW,1,1,3.84000,0.00000,0.22333,3.55250,0.00000,0.23333,0.047746
GW,1,1,3.55250,0.00000,0.23333,3.26500,0.00000,0.24333,0.047746
GW,1,1,3.26500,0.00000,0.24333,2.97750,0.00000,0.25333,0.047746
GW,1,1,2.97750,0.00000,0.25333,2.69000,0.00000,0.26333,0.047746
GW,1,1,3.84000,0.00000,0.44667,3.55250,0.00000,0.46667,0.047746
GW,1,1,3.55250,0.00000,0.46667,3.26500,0.00000,0.48667,0.047746
GW,1,1,3.26500,0.00000,0.48667,2.97750,0.00000,0.50667,0.047746
GW,1,1,2.97750,0.00000,0.50667,2.69000,0.00000,0.52667,0.047746
GW,1,3,3.55250,0.00000,0.00000,3.55250,0.00000,0.70000,0.047746
GW,1,3,3.26500,0.00000,0.00000,3.26500,0.00000,0.73000,0.047746
GW,1,3,2.97750,0.00000,0.00000,2.97750,0.00000,0.76000,0.047746
GW,2,1,2.69000,0.28000,0.79000,2.97750,0.28000,0.76000,0.047746
GW,2,1,2.97750,0.28000,0.76000,3.26500,0.28000,0.73000,0.047746
GW,2,1,3.26500,0.28000,0.73000,3.55250,0.28000,0.70000,0.047746
GW,2,1,3.55250,0.28000,0.70000,3.84000,0.28000,0.67000,0.047746
GW,2,1,2.69000,0.56000,0.79000,2.97750,0.56000,0.76000,0.047746
GW,2,1,2.97750,0.56000,0.76000,3.26500,0.56000,0.73000,0.047746
GW,2,1,3.26500,0.56000,0.73000,3.55250,0.56000,0.70000,0.047746
GW,2,1,3.55250,0.56000,0.70000,3.84000,0.56000,0.67000,0.047746
GW,2,3,2.97750,0.00000,0.76000,2.97750,0.84000,0.76000,0.047746
GW,2,3,3.26500,0.00000,0.73000,3.26500,0.84000,0.73000,0.047746
GW,2,3,3.55250,0.00000,0.70000,3.55250,0.84000,0.70000,0.047746
GW,3,1,3.84000,0.00000,0.22333,3.84000,0.28000,0.22333,0.047746
GW,3,1,3.84000,0.28000,0.22333,3.84000,0.56000,0.22333,0.047746
GW,3,1,3.84000,0.56000,0.22333,3.84000,0.84000,0.22333,0.047746
GW,3,1,3.84000,0.00000,0.44667,3.84000,0.28000,0.44667,0.047746
GW,3,1,3.84000,0.28000,0.44667,3.84000,0.56000,0.44667,0.047746
GW,3,1,3.84000,0.56000,0.44667,3.84000,0.84000,0.44667,0.047746
GW,3,3,3.84000,0.28000,0.00000,3.84000,0.28000,0.67000,0.047746
GW,3,3,3.84000,0.56000,0.00000,3.84000,0.56000,0.67000,0.047746
GW,4,1,0.48000,0.56000,1.25000,0.75667,0.56000,1.25000,0.047746
GW,4,1,0.75667,0.56000,1.25000,1.03333,0.56000,1.25000,0.047746
GW,4,1,1.03333,0.56000,1.25000,1.31000,0.56000,1.25000,0.047746
GW,4,1,1.31000,0.56000,1.25000,1.58667,0.56000,1.25000,0.047746
GW,4,1,1.58667,0.56000,1.25000,1.86333,0.56000,1.25000,0.047746
GW,4,1,1.86333,0.56000,1.25000,2.14000,0.56000,1.25000,0.047746
GW,4,1,0.48000,0.28000,1.25000,0.75667,0.28000,1.25000,0.047746
GW,4,1,0.75667,0.28000,1.25000,1.03333,0.28000,1.25000,0.047746
GW,4,1,1.03333,0.28000,1.25000,1.31000,0.28000,1.25000,0.047746
GW,4,1,1.31000,0.28000,1.25000,1.58667,0.28000,1.25000,0.047746
GW,4,1,1.58667,0.28000,1.25000,1.86333,0.28000,1.25000,0.047746
GW,4,1,1.86333,0.28000,1.25000,2.14000,0.28000,1.25000,0.047746
GW,4,3,0.75667,0.84000,1.25000,0.75667,0.00000,1.25000,0.047746
GW,4,3,1.03333,0.84000,1.25000,1.03333,0.00000,1.25000,0.047746
GW,4,3,1.31000,0.84000,1.25000,1.31000,0.00000,1.25000,0.047746
GW,4,3,1.58667,0.84000,1.25000,1.58667,0.00000,1.25000,0.047746
GW,4,3,1.86333,0.84000,1.25000,1.86333,0.00000,1.25000,0.047746
GW,5,1,0.00000,0.00000,0.26333,0.00000,0.28000,0.26333,0.047746
GW,5,1,0.00000,0.28000,0.26333,0.00000,0.56000,0.26333,0.047746
GW,5,1,0.00000,0.56000,0.26333,0.00000,0.84000,0.26333,0.047746
GW,5,1,0.00000,0.00000,0.52667,0.00000,0.28000,0.52667,0.047746
GW,5,1,0.00000,0.28000,0.52667,0.00000,0.56000,0.52667,0.047746
GW,5,1,0.00000,0.56000,0.52667,0.00000,0.84000,0.52667,0.047746
GW,5,3,0.00000,0.28000,0.00000,0.00000,0.28000,0.79000,0.047746
GW,5,3,0.00000,0.56000,0.00000,0.00000,0.56000,0.79000,0.047746
GW,9,1,-0.00000,1.68000,0.52667,0.29889,1.68000,0.52667,0.047746
GW,9,1,0.29889,1.68000,0.52667,0.59778,1.68000,0.52667,0.047746
GW,9,1,0.59778,1.68000,0.52667,0.89667,1.68000,0.52667,0.047746
GW,9,1,0.89667,1.68000,0.52667,1.19556,1.68000,0.52667,0.047746
GW,9,1,1.19556,1.68000,0.52667,1.49444,1.68000,0.52667,0.047746
GW,9,1,1.49444,1.68000,0.52667,1.79333,1.68000,0.52667,0.047746
GW,9,1,1.79333,1.68000,0.52667,2.09222,1.68000,0.52667,0.047746
GW,9,1,2.09222,1.68000,0.52667,2.39111,1.68000,0.52667,0.047746
GW,9,1,2.39111,1.68000,0.52667,2.69000,1.68000,0.52667,0.047746
GW,9,1,-0.00000,1.68000,0.26333,0.29889,1.68000,0.26333,0.047746
GW,9,1,0.29889,1.68000,0.26333,0.59778,1.68000,0.26333,0.047746
GW,9,1,0.59778,1.68000,0.26333,0.89667,1.68000,0.26333,0.047746
GW,9,1,0.89667,1.68000,0.26333,1.19556,1.68000,0.26333,0.047746
GW,9,1,1.19556,1.68000,0.26333,1.49444,1.68000,0.26333,0.047746
GW,9,1,1.49444,1.68000,0.26333,1.79333,1.68000,0.26333,0.047746
GW,9,1,1.79333,1.68000,0.26333,2.09222,1.68000,0.26333,0.047746
GW,9,1,2.09222,1.68000,0.26333,2.39111,1.68000,0.26333,0.047746
GW,9,1,2.39111,1.68000,0.26333,2.69000,1.68000,0.26333,0.047746
GW,9,3,0.29889,1.68000,0.79000,0.29889,1.68000,-0.00000,0.047746
GW,9,3,0.59778,1.68000,0.79000,0.59778,1.68000,-0.00000,0.047746
GW,9,3,0.89667,1.68000,0.79000,0.89667,1.68000,-0.00000,0.047746
GW,9,3,1.19556,1.68000,0.79000,1.19556,1.68000,-0.00000,0.047746
GW,9,3,1.49444,1.68000,0.79000,1.49444,1.68000,-0.00000,0.047746
GW,9,3,1.79333,1.68000,0.79000,1.79333,1.68000,-0.00000,0.047746
GW,9,3,2.09222,1.68000,0.79000,2.09222,1.68000,-0.00000,0.047746
GW,9,3,2.39111,1.68000,0.79000,2.39111,1.68000,-0.00000,0.047746
GW,10,1,2.69000,1.68000,0.26333,2.97750,1.68000,0.25333,0.047746
GW,10,1,2.97750,1.68000,0.25333,3.26500,1.68000,0.24333,0.047746
GW,10,1,3.26500,1.68000,0.24333,3.55250,1.68000,0.23333,0.047746
GW,10,1,3.55250,1.68000,0.23333,3.84000,1.68000,0.22333,0.047746
GW,10,1,2.69000,1.68000,0.52667,2.97750,1.68000,0.50667,0.047746
GW,10,1,2.97750,1.68000,0.50667,3.26500,1.68000,0.48667,0.047746
GW,10,1,3.26500,1.68000,0.48667,3.55250,1.68000,0.46667,0.047746
GW,10,1,3.55250,1.68000,0.46667,3.84000,1.68000,0.44667,0.047746
GW,10,3,2.97750,1.68000,-0.00000,2.97750,1.68000,0.76000,0.047746
GW,10,3,3.26500,1.68000,-0.00000,3.26500,1.68000,0.73000,0.047746
GW,10,3,3.55250,1.68000,-0.00000,3.55250,1.68000,0.70000,0.047746
GW,11,1,3.84000,1.40000,0.67000,3.55250,1.40000,0.70000,0.047746
GW,11,1,3.55250,1.40000,0.70000,3.26500,1.40000,0.73000,0.047746
GW,11,1,3.26500,1.40000,0.73000,2.97750,1.40000,0.76000,0.047746
GW,11,1,2.97750,1.40000,0.76000,2.69000,1.40000,0.79000,0.047746
GW,11,1,3.84000,1.12000,0.67000,3.55250,1.12000,0.70000,0.047746
GW,11,1,3.55250,1.12000,0.70000,3.26500,1.12000,0.73000,0.047746
GW,11,1,3.26500,1.12000,0.73000,2.97750,1.12000,0.76000,0.047746
GW,11,1,2.97750,1.12000,0.76000,2.69000,1.12000,0.79000,0.047746
GW,11,3,3.55250,1.68000,0.70000,3.55250,0.84000,0.70000,0.047746
GW,11,3,3.26500,1.68000,0.73000,3.26500,0.84000,0.73000,0.047746
GW,11,3,2.97750,1.68000,0.76000,2.97750,0.84000,0.76000,0.047746
GW,12,1,3.84000,0.84000,0.22333,3.84000,1.12000,0.22333,0.047746
GW,12,1,3.84000,1.12000,0.22333,3.84000,1.40000,0.22333,0.047746
GW,12,1,3.84000,1.40000,0.22333,3.84000,1.68000,0.22333,0.047746
GW,12,1,3.84000,0.84000,0.44667,3.84000,1.12000,0.44667,0.047746
GW,12,1,3.84000,1.12000,0.44667,3.84000,1.40000,0.44667,0.047746
GW,12,1,3.84000,1.40000,0.44667,3.84000,1.68000,0.44667,0.047746
GW,12,3,3.84000,1.12000,-0.00000,3.84000,1.12000,0.67000,0.047746
GW,12,3,3.84000,1.40000,-0.00000,3.84000,1.40000,0.67000,0.047746
GW,13,1,0.48000,1.12000,1.25000,0.75667,1.12000,1.25000,0.047746
GW,13,1,0.75667,1.12000,1.25000,1.03333,1.12000,1.25000,0.047746
GW,13,1,1.03333,1.12000,1.25000,1.31000,1.12000,1.25000,0.047746
GW,13,1,1.31000,1.12000,1.25000,1.58667,1.12000,1.25000,0.047746
GW,13,1,1.58667,1.12000,1.25000,1.86333,1.12000,1.25000,0.047746
GW,13,1,1.86333,1.12000,1.25000,2.14000,1.12000,1.25000,0.047746
GW,13,1,0.48000,1.40000,1.25000,0.75667,1.40000,1.25000,0.047746
GW,13,1,0.75667,1.40000,1.25000,1.03333,1.40000,1.25000,0.047746
GW,13,1,1.03333,1.40000,1.25000,1.31000,1.40000,1.25000,0.047746
GW,13,1,1.31000,1.40000,1.25000,1.58667,1.40000,1.25000,0.047746
GW,13,1,1.58667,1.40000,1.25000,1.86333,1.40000,1.25000,0.047746
GW,13,1,1.86333,1.40000,1.25000,2.14000,1.40000,1.25000,0.047746
GW,13,3,0.75667,0.84000,1.25000,0.75667,1.68000,1.25000,0.047746
GW,13,3,1.03333,0.84000,1.25000,1.03333,1.68000,1.25000,0.047746
GW,13,3,1.31000,0.84000,1.25000,1.31000,1.68000,1.25000,0.047746
GW,13,3,1.58667,0.84000,1.25000,1.58667,1.68000,1.25000,0.047746
GW,13,3,1.86333,0.84000,1.25000,1.86333,1.68000,1.25000,0.047746
GW,14,1,-0.00000,1.68000,0.26333,-0.00000,1.40000,0.26333,0.047746
GW,14,1,-0.00000,1.40000,0.26333,-0.00000,1.12000,0.26333,0.047746
GW,14,1,-0.00000,1.12000,0.26333,-0.00000,0.84000,0.26333,0.047746
GW,14,1,-0.00000,1.68000,0.52667,-0.00000,1.40000,0.52667,0.047746
GW,14,1,-0.00000,1.40000,0.52667,-0.00000,1.12000,0.52667,0.047746
GW,14,1,-0.00000,1.12000,0.52667,-0.00000,0.84000,0.52667,0.047746
GW,14,3,-0.00000,1.40000,-0.00000,-0.00000,1.40000,0.79000,0.047746
GW,14,3,-0.00000,1.12000,-0.00000,-0.00000,1.12000,0.79000,0.047746
GE
FR, 0 , 1 , 0 , 0 , 90.1 , 50.0
EX, 0 , 18 , 3 , 0 , 1.00 , 0.00
PT, 1                            
NE, 0, 42, 19, 17, -0.1, -0.1, -0.1, 0.1, 0.1, 0.1
EN