CM Length X1 = .097
CM Length X2 = .097
CM Length Y = .153
CM Length Z1 = .048
CM Length Z2 = .048
CM X sections = 5
CM Y sections = 5
CM Z sections = 5
CM Rotate X, Y, Z = 0, 0, 0
CM Move X, Y, Z = 0, .0765, 0
CE
'GW    1   1   -.0485       .0     .024   -.0485       .0    .0144     .001
'GW    2   1   -.0485       .0    .0144   -.0485       .0    .0048     .001
'GW    3   1   -.0485       .0    .0048   -.0485       .0   -.0048     .001
'GW    4   1   -.0485       .0   -.0048   -.0485       .0   -.0144     .001
'GW    5   1   -.0485       .0   -.0144   -.0485       .0    -.024     .001
'GW    6   1    .0485       .0     .024    .0485       .0    .0144     .001
'GW    7   1    .0485       .0    .0144    .0485       .0    .0048     .001
'GW    8   1    .0485       .0    .0048    .0485       .0   -.0048     .001
'GW    9   1    .0485       .0   -.0048    .0485       .0   -.0144     .001
'GW   10   1    .0485       .0   -.0144    .0485       .0    -.024     .001
'GW   11   1   -.0485       .0     .024   -.0291       .0     .024     .001
'GW   12   1   -.0291       .0     .024   -.0097       .0     .024     .001
'GW   13   1   -.0097       .0     .024    .0097       .0     .024     .001
'GW   14   1    .0097       .0     .024    .0291       .0     .024     .001
'GW   15   1    .0291       .0     .024    .0485       .0     .024     .001
'GW   16   1   -.0485       .0    -.024   -.0291       .0    -.024     .001
'GW   17   1   -.0291       .0    -.024   -.0097       .0    -.024     .001
'GW   18   1   -.0097       .0    -.024    .0097       .0    -.024     .001
'GW   19   1    .0097       .0    -.024    .0291       .0    -.024     .001
'GW   20   1    .0291       .0    -.024    .0485       .0    -.024     .001
GW   21   1   -.0485     .153     .024   -.0485     .153    .0144     .001
GW   22   1   -.0485     .153    .0144   -.0485     .153    .0048     .001
GW   23   1   -.0485     .153    .0048   -.0485     .153   -.0048     .001
GW   24   1   -.0485     .153   -.0048   -.0485     .153   -.0144     .001
GW   25   1   -.0485     .153   -.0144   -.0485     .153    -.024     .001
GW   26   1   -.0291     .153     .024   -.0291     .153    .0144     .001
GW   27   1   -.0291     .153    .0144   -.0291     .153    .0048     .001
GW   28   1   -.0291     .153    .0048   -.0291     .153   -.0048     .001
GW   29   1   -.0291     .153   -.0048   -.0291     .153   -.0144     .001
GW   30   1   -.0291     .153   -.0144   -.0291     .153    -.024     .001
GW   31   1   -.0097     .153     .024   -.0097     .153    .0144     .001
GW   32   1   -.0097     .153    .0144   -.0097     .153    .0048     .001
GW   33   1   -.0097     .153    .0048   -.0097     .153   -.0048     .001
GW   34   1   -.0097     .153   -.0048   -.0097     .153   -.0144     .001
GW   35   1   -.0097     .153   -.0144   -.0097     .153    -.024     .001
GW   36   1    .0097     .153     .024    .0097     .153    .0144     .001
GW   37   1    .0097     .153    .0144    .0097     .153    .0048     .001
GW   38   1    .0097     .153    .0048    .0097     .153   -.0048     .001
GW   39   1    .0097     .153   -.0048    .0097     .153   -.0144     .001
GW   40   1    .0097     .153   -.0144    .0097     .153    -.024     .001
GW   41   1    .0291     .153     .024    .0291     .153    .0144     .001
GW   42   1    .0291     .153    .0144    .0291     .153    .0048     .001
GW   43   1    .0291     .153    .0048    .0291     .153   -.0048     .001
GW   44   1    .0291     .153   -.0048    .0291     .153   -.0144     .001
GW   45   1    .0291     .153   -.0144    .0291     .153    -.024     .001
GW   46   1    .0485     .153     .024    .0485     .153    .0144     .001
GW   47   1    .0485     .153    .0144    .0485     .153    .0048     .001
GW   48   1    .0485     .153    .0048    .0485     .153   -.0048     .001
GW   49   1    .0485     .153   -.0048    .0485     .153   -.0144     .001
GW   50   1    .0485     .153   -.0144    .0485     .153    -.024     .001
GW   51   1   -.0485     .153     .024   -.0291     .153     .024     .001
GW   52   1   -.0291     .153     .024   -.0097     .153     .024     .001
GW   53   1   -.0097     .153     .024    .0097     .153     .024     .001
GW   54   1    .0097     .153     .024    .0291     .153     .024     .001
GW   55   1    .0291     .153     .024    .0485     .153     .024     .001
GW   56   1   -.0485     .153    .0144   -.0291     .153    .0144     .001
GW   57   1   -.0291     .153    .0144   -.0097     .153    .0144     .001
GW   58   1   -.0097     .153    .0144    .0097     .153    .0144     .001
GW   59   1    .0097     .153    .0144    .0291     .153    .0144     .001
GW   60   1    .0291     .153    .0144    .0485     .153    .0144     .001
GW   61   1   -.0485     .153    .0048   -.0291     .153    .0048     .001
GW   62   1   -.0291     .153    .0048   -.0097     .153    .0048     .001
GW   63   1   -.0097     .153    .0048    .0097     .153    .0048     .001
GW   64   1    .0097     .153    .0048    .0291     .153    .0048     .001
GW   65   1    .0291     .153    .0048    .0485     .153    .0048     .001
GW   66   1   -.0485     .153   -.0048   -.0291     .153   -.0048     .001
GW   67   1   -.0291     .153   -.0048   -.0097     .153   -.0048     .001
GW   68   1   -.0097     .153   -.0048    .0097     .153   -.0048     .001
GW   69   1    .0097     .153   -.0048    .0291     .153   -.0048     .001
GW   70   1    .0291     .153   -.0048    .0485     .153   -.0048     .001
GW   71   1   -.0485     .153   -.0144   -.0291     .153   -.0144     .001
GW   72   1   -.0291     .153   -.0144   -.0097     .153   -.0144     .001
GW   73   1   -.0097     .153   -.0144    .0097     .153   -.0144     .001
GW   74   1    .0097     .153   -.0144    .0291     .153   -.0144     .001
GW   75   1    .0291     .153   -.0144    .0485     .153   -.0144     .001
GW   76   1   -.0485     .153    -.024   -.0291     .153    -.024     .001
GW   77   1   -.0291     .153    -.024   -.0097     .153    -.024     .001
GW   78   1   -.0097     .153    -.024    .0097     .153    -.024     .001
GW   79   1    .0097     .153    -.024    .0291     .153    -.024     .001
GW   80   1    .0291     .153    -.024    .0485     .153    -.024     .001
GW   81   1   -.0485       .0     .024   -.0485    .0306     .024     .001
GW   82   1   -.0485    .0306     .024   -.0485    .0612     .024     .001
GW   83   1   -.0485    .0612     .024   -.0485    .0918     .024     .001
GW   84   1   -.0485    .0918     .024   -.0485    .1224     .024     .001
GW   85   1   -.0485    .1224     .024   -.0485     .153     .024     .001
GW   86   1   -.0485       .0    .0144   -.0485    .0306    .0144     .001
GW   87   1   -.0485    .0306    .0144   -.0485    .0612    .0144     .001
GW   88   1   -.0485    .0612    .0144   -.0485    .0918    .0144     .001
GW   89   1   -.0485    .0918    .0144   -.0485    .1224    .0144     .001
GW   90   1   -.0485    .1224    .0144   -.0485     .153    .0144     .001
GW   91   1   -.0485       .0    .0048   -.0485    .0306    .0048     .001
GW   92   1   -.0485    .0306    .0048   -.0485    .0612    .0048     .001
GW   93   1   -.0485    .0612    .0048   -.0485    .0918    .0048     .001
GW   94   1   -.0485    .0918    .0048   -.0485    .1224    .0048     .001
GW   95   1   -.0485    .1224    .0048   -.0485     .153    .0048     .001
GW   96   1   -.0485       .0   -.0048   -.0485    .0306   -.0048     .001
GW   97   1   -.0485    .0306   -.0048   -.0485    .0612   -.0048     .001
GW   98   1   -.0485    .0612   -.0048   -.0485    .0918   -.0048     .001
GW   99   1   -.0485    .0918   -.0048   -.0485    .1224   -.0048     .001
GW  100   1   -.0485    .1224   -.0048   -.0485     .153   -.0048     .001
GW  101   1   -.0485       .0   -.0144   -.0485    .0306   -.0144     .001
GW  102   1   -.0485    .0306   -.0144   -.0485    .0612   -.0144     .001
GW  103   1   -.0485    .0612   -.0144   -.0485    .0918   -.0144     .001
GW  104   1   -.0485    .0918   -.0144   -.0485    .1224   -.0144     .001
GW  105   1   -.0485    .1224   -.0144   -.0485     .153   -.0144     .001
GW  106   1   -.0485       .0    -.024   -.0485    .0306    -.024     .001
GW  107   1   -.0485    .0306    -.024   -.0485    .0612    -.024     .001
GW  108   1   -.0485    .0612    -.024   -.0485    .0918    -.024     .001
GW  109   1   -.0485    .0918    -.024   -.0485    .1224    -.024     .001
GW  110   1   -.0485    .1224    -.024   -.0485     .153    -.024     .001
GW  111   1   -.0485    .0306     .024   -.0485    .0306    .0144     .001
GW  112   1   -.0485    .0306    .0144   -.0485    .0306    .0048     .001
GW  113   1   -.0485    .0306    .0048   -.0485    .0306   -.0048     .001
GW  114   1   -.0485    .0306   -.0048   -.0485    .0306   -.0144     .001
GW  115   1   -.0485    .0306   -.0144   -.0485    .0306    -.024     .001
GW  116   1   -.0485    .0612     .024   -.0485    .0612    .0144     .001
GW  117   1   -.0485    .0612    .0144   -.0485    .0612    .0048     .001
GW  118   1   -.0485    .0612    .0048   -.0485    .0612   -.0048     .001
GW  119   1   -.0485    .0612   -.0048   -.0485    .0612   -.0144     .001
GW  120   1   -.0485    .0612   -.0144   -.0485    .0612    -.024     .001
GW  121   1   -.0485    .0918     .024   -.0485    .0918    .0144     .001
GW  122   1   -.0485    .0918    .0144   -.0485    .0918    .0048     .001
GW  123   1   -.0485    .0918    .0048   -.0485    .0918   -.0048     .001
GW  124   1   -.0485    .0918   -.0048   -.0485    .0918   -.0144     .001
GW  125   1   -.0485    .0918   -.0144   -.0485    .0918    -.024     .001
GW  126   1   -.0485    .1224     .024   -.0485    .1224    .0144     .001
GW  127   1   -.0485    .1224    .0144   -.0485    .1224    .0048     .001
GW  128   1   -.0485    .1224    .0048   -.0485    .1224   -.0048     .001
GW  129   1   -.0485    .1224   -.0048   -.0485    .1224   -.0144     .001
GW  130   1   -.0485    .1224   -.0144   -.0485    .1224    -.024     .001
GW  131   1    .0485       .0     .024    .0485    .0306     .024     .001
GW  132   1    .0485    .0306     .024    .0485    .0612     .024     .001
GW  133   1    .0485    .0612     .024    .0485    .0918     .024     .001
GW  134   1    .0485    .0918     .024    .0485    .1224     .024     .001
GW  135   1    .0485    .1224     .024    .0485     .153     .024     .001
GW  136   1    .0485       .0    .0144    .0485    .0306    .0144     .001
GW  137   1    .0485    .0306    .0144    .0485    .0612    .0144     .001
GW  138   1    .0485    .0612    .0144    .0485    .0918    .0144     .001
GW  139   1    .0485    .0918    .0144    .0485    .1224    .0144     .001
GW  140   1    .0485    .1224    .0144    .0485     .153    .0144     .001
GW  141   1    .0485       .0    .0048    .0485    .0306    .0048     .001
GW  142   1    .0485    .0306    .0048    .0485    .0612    .0048     .001
GW  143   1    .0485    .0612    .0048    .0485    .0918    .0048     .001
GW  144   1    .0485    .0918    .0048    .0485    .1224    .0048     .001
GW  145   1    .0485    .1224    .0048    .0485     .153    .0048     .001
GW  146   1    .0485       .0   -.0048    .0485    .0306   -.0048     .001
GW  147   1    .0485    .0306   -.0048    .0485    .0612   -.0048     .001
GW  148   1    .0485    .0612   -.0048    .0485    .0918   -.0048     .001
GW  149   1    .0485    .0918   -.0048    .0485    .1224   -.0048     .001
GW  150   1    .0485    .1224   -.0048    .0485     .153   -.0048     .001
GW  151   1    .0485       .0   -.0144    .0485    .0306   -.0144     .001
GW  152   1    .0485    .0306   -.0144    .0485    .0612   -.0144     .001
GW  153   1    .0485    .0612   -.0144    .0485    .0918   -.0144     .001
GW  154   1    .0485    .0918   -.0144    .0485    .1224   -.0144     .001
GW  155   1    .0485    .1224   -.0144    .0485     .153   -.0144     .001
GW  156   1    .0485       .0    -.024    .0485    .0306    -.024     .001
GW  157   1    .0485    .0306    -.024    .0485    .0612    -.024     .001
GW  158   1    .0485    .0612    -.024    .0485    .0918    -.024     .001
GW  159   1    .0485    .0918    -.024    .0485    .1224    -.024     .001
GW  160   1    .0485    .1224    -.024    .0485     .153    -.024     .001
GW  161   1    .0485    .0306     .024    .0485    .0306    .0144     .001
GW  162   1    .0485    .0306    .0144    .0485    .0306    .0048     .001
GW  163   1    .0485    .0306    .0048    .0485    .0306   -.0048     .001
GW  164   1    .0485    .0306   -.0048    .0485    .0306   -.0144     .001
GW  165   1    .0485    .0306   -.0144    .0485    .0306    -.024     .001
GW  166   1    .0485    .0612     .024    .0485    .0612    .0144     .001
GW  167   1    .0485    .0612    .0144    .0485    .0612    .0048     .001
GW  168   1    .0485    .0612    .0048    .0485    .0612   -.0048     .001
GW  169   1    .0485    .0612   -.0048    .0485    .0612   -.0144     .001
GW  170   1    .0485    .0612   -.0144    .0485    .0612    -.024     .001
GW  171   1    .0485    .0918     .024    .0485    .0918    .0144     .001
GW  172   1    .0485    .0918    .0144    .0485    .0918    .0048     .001
GW  173   1    .0485    .0918    .0048    .0485    .0918   -.0048     .001
GW  174   1    .0485    .0918   -.0048    .0485    .0918   -.0144     .001
GW  175   1    .0485    .0918   -.0144    .0485    .0918    -.024     .001
GW  176   1    .0485    .1224     .024    .0485    .1224    .0144     .001
GW  177   1    .0485    .1224    .0144    .0485    .1224    .0048     .001
GW  178   1    .0485    .1224    .0048    .0485    .1224   -.0048     .001
GW  179   1    .0485    .1224   -.0048    .0485    .1224   -.0144     .001
GW  180   1    .0485    .1224   -.0144    .0485    .1224    -.024     .001
GW  181   1   -.0291       .0     .024   -.0291    .0306     .024     .001
GW  182   1   -.0291    .0306     .024   -.0291    .0612     .024     .001
GW  183   1   -.0291    .0612     .024   -.0291    .0918     .024     .001
GW  184   1   -.0291    .0918     .024   -.0291    .1224     .024     .001
GW  185   1   -.0291    .1224     .024   -.0291     .153     .024     .001
GW  186   1   -.0097       .0     .024   -.0097    .0306     .024     .001
GW  187   1   -.0097    .0306     .024   -.0097    .0612     .024     .001
GW  188   1   -.0097    .0612     .024   -.0097    .0918     .024     .001
GW  189   1   -.0097    .0918     .024   -.0097    .1224     .024     .001
GW  190   1   -.0097    .1224     .024   -.0097     .153     .024     .001
GW  191   1    .0097       .0     .024    .0097    .0306     .024     .001
GW  192   1    .0097    .0306     .024    .0097    .0612     .024     .001
GW  193   1    .0097    .0612     .024    .0097    .0918     .024     .001
GW  194   1    .0097    .0918     .024    .0097    .1224     .024     .001
GW  195   1    .0097    .1224     .024    .0097     .153     .024     .001
GW  196   1    .0291       .0     .024    .0291    .0306     .024     .001
GW  197   1    .0291    .0306     .024    .0291    .0612     .024     .001
GW  198   1    .0291    .0612     .024    .0291    .0918     .024     .001
GW  199   1    .0291    .0918     .024    .0291    .1224     .024     .001
GW  200   1    .0291    .1224     .024    .0291     .153     .024     .001
GW  201   1   -.0485    .0306     .024   -.0291    .0306     .024     .001
GW  202   1   -.0291    .0306     .024   -.0097    .0306     .024     .001
GW  203   1   -.0097    .0306     .024    .0097    .0306     .024     .001
GW  204   1    .0097    .0306     .024    .0291    .0306     .024     .001
GW  205   1    .0291    .0306     .024    .0485    .0306     .024     .001
GW  206   1   -.0485    .0612     .024   -.0291    .0612     .024     .001
GW  207   1   -.0291    .0612     .024   -.0097    .0612     .024     .001
GW  208   1   -.0097    .0612     .024    .0097    .0612     .024     .001
GW  209   1    .0097    .0612     .024    .0291    .0612     .024     .001
GW  210   1    .0291    .0612     .024    .0485    .0612     .024     .001
GW  211   1   -.0485    .0918     .024   -.0291    .0918     .024     .001
GW  212   1   -.0291    .0918     .024   -.0097    .0918     .024     .001
GW  213   1   -.0097    .0918     .024    .0097    .0918     .024     .001
GW  214   1    .0097    .0918     .024    .0291    .0918     .024     .001
GW  215   1    .0291    .0918     .024    .0485    .0918     .024     .001
GW  216   1   -.0485    .1224     .024   -.0291    .1224     .024     .001
GW  217   1   -.0291    .1224     .024   -.0097    .1224     .024     .001
GW  218   1   -.0097    .1224     .024    .0097    .1224     .024     .001
GW  219   1    .0097    .1224     .024    .0291    .1224     .024     .001
GW  220   1    .0291    .1224     .024    .0485    .1224     .024     .001
GW  221   1   -.0291       .0    -.024   -.0291    .0306    -.024     .001
GW  222   1   -.0291    .0306    -.024   -.0291    .0612    -.024     .001
GW  223   1   -.0291    .0612    -.024   -.0291    .0918    -.024     .001
GW  224   1   -.0291    .0918    -.024   -.0291    .1224    -.024     .001
GW  225   1   -.0291    .1224    -.024   -.0291     .153    -.024     .001
GW  226   1   -.0097       .0    -.024   -.0097    .0306    -.024     .001
GW  227   1   -.0097    .0306    -.024   -.0097    .0612    -.024     .001
GW  228   1   -.0097    .0612    -.024   -.0097    .0918    -.024     .001
GW  229   1   -.0097    .0918    -.024   -.0097    .1224    -.024     .001
GW  230   1   -.0097    .1224    -.024   -.0097     .153    -.024     .001
GW  231   1    .0097       .0    -.024    .0097    .0306    -.024     .001
GW  232   1    .0097    .0306    -.024    .0097    .0612    -.024     .001
GW  233   1    .0097    .0612    -.024    .0097    .0918    -.024     .001
GW  234   1    .0097    .0918    -.024    .0097    .1224    -.024     .001
GW  235   1    .0097    .1224    -.024    .0097     .153    -.024     .001
GW  236   1    .0291       .0    -.024    .0291    .0306    -.024     .001
GW  237   1    .0291    .0306    -.024    .0291    .0612    -.024     .001
GW  238   1    .0291    .0612    -.024    .0291    .0918    -.024     .001
GW  239   1    .0291    .0918    -.024    .0291    .1224    -.024     .001
GW  240   1    .0291    .1224    -.024    .0291     .153    -.024     .001
GW  241   1   -.0485    .0306    -.024   -.0291    .0306    -.024     .001
GW  242   1   -.0291    .0306    -.024   -.0097    .0306    -.024     .001
GW  243   1   -.0097    .0306    -.024    .0097    .0306    -.024     .001
GW  244   1    .0097    .0306    -.024    .0291    .0306    -.024     .001
GW  245   1    .0291    .0306    -.024    .0485    .0306    -.024     .001
GW  246   1   -.0485    .0612    -.024   -.0291    .0612    -.024     .001
GW  247   1   -.0291    .0612    -.024   -.0097    .0612    -.024     .001
GW  248   1   -.0097    .0612    -.024    .0097    .0612    -.024     .001
GW  249   1    .0097    .0612    -.024    .0291    .0612    -.024     .001
GW  250   1    .0291    .0612    -.024    .0485    .0612    -.024     .001
GW  251   1   -.0485    .0918    -.024   -.0291    .0918    -.024     .001
GW  252   1   -.0291    .0918    -.024   -.0097    .0918    -.024     .001
GW  253   1   -.0097    .0918    -.024    .0097    .0918    -.024     .001
GW  254   1    .0097    .0918    -.024    .0291    .0918    -.024     .001
GW  255   1    .0291    .0918    -.024    .0485    .0918    -.024     .001
GW  256   1   -.0485    .1224    -.024   -.0291    .1224    -.024     .001
GW  257   1   -.0291    .1224    -.024   -.0097    .1224    -.024     .001
GW  258   1   -.0097    .1224    -.024    .0097    .1224    -.024     .001
GW  259   1    .0097    .1224    -.024    .0291    .1224    -.024     .001
GW  260   1    .0291    .1224    -.024    .0485    .1224    -.024     .001
'CM Length X1 = .255
'CM Length X2 = .097
'CM Length Y = .257
'CM Length Z1 = .191
'CM Length Z2 = .048
'CM X sections = 15
'CM Y sections = 15
'CM Z sections = 15
'CM Rotate X, Y, Z = 0, 0, 0
'CM Move X, Y, Z = 0, -.1285, 0
GW  500   1   -.1275    -.257    .0955   -.1275    -.257  .082767     .001
GW  501   1   -.1275    -.257  .082767   -.1275    -.257  .070033     .001
GW  502   1   -.1275    -.257  .070033   -.1275    -.257    .0573     .001
GW  503   1   -.1275    -.257    .0573   -.1275    -.257  .044567     .001
GW  504   1   -.1275    -.257  .044567   -.1275    -.257  .031833     .001
GW  505   1   -.1275    -.257  .031833   -.1275    -.257    .0191     .001
GW  506   1   -.1275    -.257    .0191   -.1275    -.257  .006367     .001
GW  507   1   -.1275    -.257  .006367   -.1275    -.257 -.006367     .001
GW  508   1   -.1275    -.257 -.006367   -.1275    -.257   -.0191     .001
GW  509   1   -.1275    -.257   -.0191   -.1275    -.257 -.031833     .001
GW  510   1   -.1275    -.257 -.031833   -.1275    -.257 -.044567     .001
GW  511   1   -.1275    -.257 -.044567   -.1275    -.257   -.0573     .001
GW  512   1   -.1275    -.257   -.0573   -.1275    -.257 -.070033     .001
GW  513   1   -.1275    -.257 -.070033   -.1275    -.257 -.082767     .001
GW  514   1   -.1275    -.257 -.082767   -.1275    -.257   -.0955     .001
GW  515   1    .1275    -.257    .0955    .1275    -.257  .082767     .001
GW  516   1    .1275    -.257  .082767    .1275    -.257  .070033     .001
GW  517   1    .1275    -.257  .070033    .1275    -.257    .0573     .001
GW  518   1    .1275    -.257    .0573    .1275    -.257  .044567     .001
GW  519   1    .1275    -.257  .044567    .1275    -.257  .031833     .001
GW  520   1    .1275    -.257  .031833    .1275    -.257    .0191     .001
GW  521   1    .1275    -.257    .0191    .1275    -.257  .006367     .001
GW  522   1    .1275    -.257  .006367    .1275    -.257 -.006367     .001
GW  523   1    .1275    -.257 -.006367    .1275    -.257   -.0191     .001
GW  524   1    .1275    -.257   -.0191    .1275    -.257 -.031833     .001
GW  525   1    .1275    -.257 -.031833    .1275    -.257 -.044567     .001
GW  526   1    .1275    -.257 -.044567    .1275    -.257   -.0573     .001
GW  527   1    .1275    -.257   -.0573    .1275    -.257 -.070033     .001
GW  528   1    .1275    -.257 -.070033    .1275    -.257 -.082767     .001
GW  529   1    .1275    -.257 -.082767    .1275    -.257   -.0955     .001
GW  530   1   -.1275    -.257    .0955   -.1105    -.257    .0955     .001
GW  531   1   -.1105    -.257    .0955   -.0935    -.257    .0955     .001
GW  532   1   -.0935    -.257    .0955   -.0765    -.257    .0955     .001
GW  533   1   -.0765    -.257    .0955   -.0595    -.257    .0955     .001
GW  534   1   -.0595    -.257    .0955   -.0425    -.257    .0955     .001
GW  535   1   -.0425    -.257    .0955   -.0255    -.257    .0955     .001
GW  536   1   -.0255    -.257    .0955   -.0085    -.257    .0955     .001
GW  537   1   -.0085    -.257    .0955    .0085    -.257    .0955     .001
GW  538   1    .0085    -.257    .0955    .0255    -.257    .0955     .001
GW  539   1    .0255    -.257    .0955    .0425    -.257    .0955     .001
GW  540   1    .0425    -.257    .0955    .0595    -.257    .0955     .001
GW  541   1    .0595    -.257    .0955    .0765    -.257    .0955     .001
GW  542   1    .0765    -.257    .0955    .0935    -.257    .0955     .001
GW  543   1    .0935    -.257    .0955    .1105    -.257    .0955     .001
GW  544   1    .1105    -.257    .0955    .1275    -.257    .0955     .001
GW  545   1   -.1275    -.257   -.0955   -.1105    -.257   -.0955     .001
GW  546   1   -.1105    -.257   -.0955   -.0935    -.257   -.0955     .001
GW  547   1   -.0935    -.257   -.0955   -.0765    -.257   -.0955     .001
GW  548   1   -.0765    -.257   -.0955   -.0595    -.257   -.0955     .001
GW  549   1   -.0595    -.257   -.0955   -.0425    -.257   -.0955     .001
GW  550   1   -.0425    -.257   -.0955   -.0255    -.257   -.0955     .001
GW  551   1   -.0255    -.257   -.0955   -.0085    -.257   -.0955     .001
GW  552   1   -.0085    -.257   -.0955    .0085    -.257   -.0955     .001
GW  553   1    .0085    -.257   -.0955    .0255    -.257   -.0955     .001
GW  554   1    .0255    -.257   -.0955    .0425    -.257   -.0955     .001
GW  555   1    .0425    -.257   -.0955    .0595    -.257   -.0955     .001
GW  556   1    .0595    -.257   -.0955    .0765    -.257   -.0955     .001
GW  557   1    .0765    -.257   -.0955    .0935    -.257   -.0955     .001
GW  558   1    .0935    -.257   -.0955    .1105    -.257   -.0955     .001
GW  559   1    .1105    -.257   -.0955    .1275    -.257   -.0955     .001
GW  560   1   -.0485       .0     .024   -.0485       .0    .0208     .001
GW  561   1   -.0485       .0    .0208   -.0485       .0    .0176     .001
GW  562   1   -.0485       .0    .0176   -.0485       .0    .0144     .001
GW  563   1   -.0485       .0    .0144   -.0485       .0    .0112     .001
GW  564   1   -.0485       .0    .0112   -.0485       .0     .008     .001
GW  565   1   -.0485       .0     .008   -.0485       .0    .0048     .001
GW  566   1   -.0485       .0    .0048   -.0485       .0    .0016     .001
GW  567   1   -.0485       .0    .0016   -.0485       .0   -.0016     .001
GW  568   1   -.0485       .0   -.0016   -.0485       .0   -.0048     .001
GW  569   1   -.0485       .0   -.0048   -.0485       .0    -.008     .001
GW  570   1   -.0485       .0    -.008   -.0485       .0   -.0112     .001
GW  571   1   -.0485       .0   -.0112   -.0485       .0   -.0144     .001
GW  572   1   -.0485       .0   -.0144   -.0485       .0   -.0176     .001
GW  573   1   -.0485       .0   -.0176   -.0485       .0   -.0208     .001
GW  574   1   -.0485       .0   -.0208   -.0485       .0    -.024     .001
GW  575   1    .0485       .0     .024    .0485       .0    .0208     .001
GW  576   1    .0485       .0    .0208    .0485       .0    .0176     .001
GW  577   1    .0485       .0    .0176    .0485       .0    .0144     .001
GW  578   1    .0485       .0    .0144    .0485       .0    .0112     .001
GW  579   1    .0485       .0    .0112    .0485       .0     .008     .001
GW  580   1    .0485       .0     .008    .0485       .0    .0048     .001
GW  581   1    .0485       .0    .0048    .0485       .0    .0016     .001
GW  582   1    .0485       .0    .0016    .0485       .0   -.0016     .001
GW  583   1    .0485       .0   -.0016    .0485       .0   -.0048     .001
GW  584   1    .0485       .0   -.0048    .0485       .0    -.008     .001
GW  585   1    .0485       .0    -.008    .0485       .0   -.0112     .001
GW  586   1    .0485       .0   -.0112    .0485       .0   -.0144     .001
GW  587   1    .0485       .0   -.0144    .0485       .0   -.0176     .001
GW  588   1    .0485       .0   -.0176    .0485       .0   -.0208     .001
GW  589   1    .0485       .0   -.0208    .0485       .0    -.024     .001
GW  590   1   -.0485       .0     .024 -.042033       .0     .024     .001
GW  591   1 -.042033       .0     .024 -.035567       .0     .024     .001
GW  592   1 -.035567       .0     .024   -.0291       .0     .024     .001
GW  593   1   -.0291       .0     .024 -.022633       .0     .024     .001
GW  594   1 -.022633       .0     .024 -.016167       .0     .024     .001
GW  595   1 -.016167       .0     .024   -.0097       .0     .024     .001
GW  596   1   -.0097       .0     .024 -.003233       .0     .024     .001
GW  597   1 -.003233       .0     .024  .003233       .0     .024     .001
GW  598   1  .003233       .0     .024    .0097       .0     .024     .001
GW  599   1    .0097       .0     .024  .016167       .0     .024     .001
GW  600   1  .016167       .0     .024  .022633       .0     .024     .001
GW  601   1  .022633       .0     .024    .0291       .0     .024     .001
GW  602   1    .0291       .0     .024  .035567       .0     .024     .001
GW  603   1  .035567       .0     .024  .042033       .0     .024     .001
GW  604   1  .042033       .0     .024    .0485       .0     .024     .001
GW  605   1   -.0485       .0    -.024 -.042033       .0    -.024     .001
GW  606   1 -.042033       .0    -.024 -.035567       .0    -.024     .001
GW  607   1 -.035567       .0    -.024   -.0291       .0    -.024     .001
GW  608   1   -.0291       .0    -.024 -.022633       .0    -.024     .001
GW  609   1 -.022633       .0    -.024 -.016167       .0    -.024     .001
GW  610   1 -.016167       .0    -.024   -.0097       .0    -.024     .001
GW  611   1   -.0097       .0    -.024 -.003233       .0    -.024     .001
GW  612   1 -.003233       .0    -.024  .003233       .0    -.024     .001
GW  613   1  .003233       .0    -.024    .0097       .0    -.024     .001
GW  614   1    .0097       .0    -.024  .016167       .0    -.024     .001
GW  615   1  .016167       .0    -.024  .022633       .0    -.024     .001
GW  616   1  .022633       .0    -.024    .0291       .0    -.024     .001
GW  617   1    .0291       .0    -.024  .035567       .0    -.024     .001
GW  618   1  .035567       .0    -.024  .042033       .0    -.024     .001
GW  619   1  .042033       .0    -.024    .0485       .0    -.024     .001
GW  620   1   -.1275    -.257    .0955 -.122233 -.239867  .090733     .001
GW  621   1 -.122233 -.239867  .090733 -.116967 -.222733  .085967     .001
GW  622   1 -.116967 -.222733  .085967   -.1117   -.2056    .0812     .001
GW  623   1   -.1117   -.2056    .0812 -.106433 -.188467  .076433     .001
GW  624   1 -.106433 -.188467  .076433 -.101167 -.171333  .071667     .001
GW  625   1 -.101167 -.171333  .071667   -.0959   -.1542    .0669     .001
GW  626   1   -.0959   -.1542    .0669 -.090633 -.137067  .062133     .001
GW  627   1 -.090633 -.137067  .062133 -.085367 -.119933  .057367     .001
GW  628   1 -.085367 -.119933  .057367   -.0801   -.1028    .0526     .001
GW  629   1   -.0801   -.1028    .0526 -.074833 -.085667  .047833     .001
GW  630   1 -.074833 -.085667  .047833 -.069567 -.068533  .043067     .001
GW  631   1 -.069567 -.068533  .043067   -.0643   -.0514    .0383     .001
GW  632   1   -.0643   -.0514    .0383 -.059033 -.034267  .033533     .001