CM Model parameters are stored in ship1.he3
CM Maximum segment length is 2.00000.
CM Number of Segments: 
CM 1205
CM Number of Frequency Loops: 
CM 1
CM S21 Request:
CM -1 -1
CM --- Do not delete the above six comment lines ---
CE Start of geometry
GW 46 12 1.65 3.625 7.6 1.65 3.625 13.5 0.01
GW 92 1 -2.05 2.55 7.6 -2.05 2.55 9.6 0.0075
GW 122 12 -1.65 3.625 7.6 -1.65 3.625 13.5 0.01
GW 154 2 1.65 0.25 7.6 1.65 0.25 10.0 0.005
GW 249 2 1.875 9.825 5.5 1.875 9.825 7.7 0.05
GW 250 2 1.25 7.625 5.5 1.25 7.845 7.7 0.05
GW 251 1 1.875 9.825 7.7 1.875 9.825 9.24 0.05
GW 252 2 1.875 9.825 7.7 1.25 7.845 7.7 0.05
GW 253 1 1.25 7.845 7.7 1.25 8.065 9.24 0.05
GW 254 1 1.25 7.845 7.7 0.0 7.845 7.7 0.05
GW 255 1 1.875 9.825 7.7 0.0 9.825 7.7 0.05
GW 256 2 1.875 9.825 5.5 0.0 9.825 7.7 0.05
GW 257 2 1.875 9.825 5.5 1.25 7.845 7.7 0.05
GW 258 1 1.875 9.825 9.24 0.0 9.825 9.24 0.05
GW 259 1 1.25 8.065 9.24 0.0 8.065 9.24 0.05
GW 261 1 1.875 9.825 9.24 1.875 9.825 10.56 0.05
GW 262 1 1.25 8.065 9.24 1.25 8.285 10.56 0.05
GW 265 1 2.875 9.825 10.56 3.375 9.825 10.56 0.05
GW 266 1 3.375 8.285 10.56 3.375 9.825 10.56 0.05
GW 267 1 3.375 9.825 10.56 3.375 11.365 10.56 0.05
GW 268 1 3.375 8.285 10.56 3.375 8.285 11.56 0.05
GW 269 1 3.375 11.365 10.56 3.375 11.365 11.56 0.05
GW 270 2 -1.875 9.825 5.5 -1.875 9.825 7.7 0.05
GW 271 2 -1.25 7.625 5.5 -1.25 7.845 7.7 0.05
GW 272 1 -1.875 9.825 7.7 -1.875 9.825 9.24 0.05
GW 273 2 -1.875 9.825 7.7 -1.25 7.845 7.7 0.05
GW 274 1 -1.25 7.845 7.7 -1.25 8.065 9.24 0.05
GW 275 1 -1.25 7.845 7.7 0.0 7.845 7.7 0.05
GW 276 1 -1.875 9.825 7.7 0.0 9.825 7.7 0.05
GW 277 2 -1.875 9.825 5.5 0.0 9.825 7.7 0.05
GW 278 2 -1.875 9.825 5.5 -1.25 7.845 7.7 0.05
GW 279 1 -1.875 9.825 9.24 0.0 9.825 9.24 0.05
GW 280 1 -1.25 8.065 9.24 0.0 8.065 9.24 0.05
GW 282 1 -1.875 9.825 9.24 -1.875 9.825 10.56 0.05
GW 283 1 -1.25 8.065 9.24 -1.25 8.285 10.56 0.05
GW 285 1 -2.875 9.825 10.56 -3.375 9.825 10.56 0.05
GW 286 1 -3.375 9.825 10.56 -3.875 9.825 10.56 0.05
GW 287 1 -3.875 9.825 9.06 -3.875 9.825 10.56 0.05
GW 288 1 -3.875 9.825 10.56 -4.375 9.825 10.56 0.05
GW 289 1 -4.375 9.825 10.56 -4.375 9.825 12.56 0.05
GW 290 1 -3.375 8.285 10.56 -3.375 9.825 10.56 0.05
GW 291 1 -3.375 8.285 10.56 -3.375 8.285 11.56 0.05
GW 292 1 -2.875 9.825 10.56 -1.875 9.825 10.56 0.05
GW 293 2 -1.875 9.825 10.56 -1.875 9.825 12.76 0.05
GW 294 2 0.0 9.825 10.56 0.0 9.825 12.76 0.05
GW 295 2 -1.25 8.285 10.56 -1.25 8.725 12.76 0.05
GW 296 2 -1.875 9.825 10.56 -1.25 8.725 12.76 0.05
GW 297 2 -1.25 8.285 10.56 0.0 9.825 12.76 0.05
GW 299 3 0.0 9.825 12.76 0.0 9.825 17.16 0.05
GW 300 2 0.0 23.11 3.0 0.0 23.11 5.4 0.05
GW 301 1 0.0 23.11 5.4 0.0 23.11 7.0 0.05
GW 302 8 0.0 23.11 5.4 -2.875 9.825 10.56 0.01
GW 303 8 0.0 23.11 5.4 2.875 9.825 10.56 0.01
GW 1 1 0.0 0.0 7.6 0.0 1.5 7.6 0.0844
GW 1 1 0.0 1.5 7.6 1.9 1.5 7.6 0.0844
GW 1 1 1.9 1.5 7.6 1.65 0.25 7.6 0.0844
GW 1 1 1.65 0.25 7.6 0.0 0.0 7.6 0.0844
GW 2 1 1.9 1.5 7.6 1.9 2.3 7.6 0.07162
GW 2 1 1.9 2.3 7.6 0.0 2.3 7.6 0.07162
GW 2 1 0.0 2.3 7.6 0.0 1.5 7.6 0.07162
GW 3 1 1.9 2.3 7.6 1.9 2.3 7.3 0.04775
GW 3 2 1.9 2.3 7.3 0.0 2.3 6.1 0.04775
GW 3 1 0.0 2.3 6.1 0.0 2.3 7.6 0.04775
GW 4 1 1.9 2.3 7.3 1.9 1.5 7.3 0.04775
GW 4 1 1.9 1.5 7.3 1.9 1.5 7.6 0.04775
GW 5 1 2.2 2.3 7.6 2.2 2.8 7.6 0.04775
GW 5 1 2.2 2.8 7.6 2.2 2.8 7.3 0.04775
GW 5 1 2.2 2.8 7.3 2.2 2.3 7.3 0.04775
GW 5 1 2.2 2.3 7.3 2.2 2.3 7.6 0.04775
GW 6 1 1.9 2.3 7.6 1.9 2.8 7.6 0.04775
GW 6 1 1.9 2.8 7.6 1.9 2.8 7.3 0.04775
GW 6 1 1.9 2.8 7.3 1.9 2.3 7.3 0.04775
GW 7 1 2.2 1.5 7.6 2.2 2.3 7.6 0.04775
GW 7 1 2.2 2.3 7.3 2.2 1.5 7.3 0.04775
GW 7 1 2.2 1.5 7.3 2.2 1.5 7.6 0.04775
GW 8 1 1.9 2.3 7.6 2.2 2.3 7.6 0.04775
GW 8 1 2.2 1.5 7.6 1.9 1.5 7.6 0.04775
GW 9 1 1.9 2.3 7.3 2.2 2.3 7.3 0.04775
GW 9 1 2.2 1.5 7.3 1.9 1.5 7.3 0.04775
GW 10 1 1.9 2.8 7.3 2.2 2.8 7.3 0.04775
GW 11 1 1.9 2.8 7.6 2.05 2.55 7.6 0.0464
GW 11 1 2.05 2.55 7.6 1.9 2.3 7.6 0.0464
GW 12 1 2.05 2.55 7.6 2.2 2.3 7.6 0.0464
GW 13 1 2.05 2.55 7.6 2.2 2.8 7.6 0.0464
GW 14 1 2.2 2.8 7.6 1.9 2.8 7.6 0.0464
GW 17 1 0.0 0.0 7.6 1.9 0.0 7.6 0.04775
GW 17 1 1.9 0.0 7.6 1.9 0.0 7.3 0.04775
GW 17 1 1.9 0.0 7.3 0.0 0.0 7.3 0.04775
GW 17 1 0.0 0.0 7.3 0.0 0.0 7.6 0.04775
GW 18 1 1.9 0.0 7.3 1.9 0.0 6.1 0.19099
GW 18 1 1.9 0.0 6.1 0.0 0.0 6.1 0.19099
GW 18 1 0.0 0.0 6.1 0.0 0.0 7.3 0.19099
GW 19 1 1.9 0.0 7.6 1.9 1.5 7.6 0.04775
GW 19 1 1.9 1.5 7.3 1.9 0.0 7.3 0.04775
GW 20 1 1.9 1.5 7.3 1.9 1.5 6.1 0.19099
GW 20 1 1.9 1.5 6.1 1.9 0.0 6.1 0.19099
GW 21 1 1.9 1.5 6.1 1.9 2.3 6.1 0.11937
GW 21 1 1.9 2.3 6.1 1.9 2.3 7.3 0.11937
GW 22 1 1.9 2.3 6.1 1.9 2.8 6.1 0.05968
GW 22 1 1.9 2.8 6.1 1.9 2.8 7.3 0.05968
GW 23 1 1.9 2.8 7.3 1.9 3.05 7.1 0.03979
GW 23 1 1.9 3.05 7.1 1.9 3.05 6.1 0.03979
GW 23 1 1.9 3.05 6.1 1.9 2.8 6.1 0.03979
GW 24 1 1.9 2.8 7.6 1.9 3.05 7.6 0.03979
GW 24 1 1.9 3.05 7.6 1.9 3.05 7.1 0.03979
GW 25 1 0.0 2.3 6.1 1.9 2.3 6.1 0.07958
GW 25 1 1.9 2.8 6.1 0.0 2.8 6.1 0.07958
GW 25 1 0.0 2.8 6.1 0.0 2.3 6.1 0.07958
GW 26 1 1.9 2.8 6.1 1.4 3.05 6.1 0.05968
GW 26 1 1.4 3.05 6.1 0.0 3.05 6.1 0.05968
GW 26 1 0.0 3.05 6.1 0.0 2.8 6.1 0.05968
GW 27 1 1.9 3.05 7.1 1.9 3.45 7.1 0.06366
GW 27 1 1.9 3.45 7.1 1.9 3.45 6.1 0.06366
GW 27 1 1.9 3.45 6.1 1.9 3.05 6.1 0.06366
GW 28 1 1.9 3.05 7.6 1.9 3.45 7.6 0.06366
GW 28 1 1.9 3.45 7.6 1.9 3.45 7.1 0.06366
GW 29 1 1.9 3.05 7.1 1.4 3.05 7.1 0.06366
GW 29 1 1.4 3.05 7.1 1.4 3.45 7.1 0.06366
GW 29 1 1.4 3.45 7.1 1.9 3.45 7.1 0.06366
GW 30 1 1.9 3.05 6.1 1.4 3.05 6.1 0.03979
GW 31 1 1.4 3.05 7.1 1.4 3.05 6.1 0.07958
GW 32 1 1.4 3.45 7.1 1.4 3.45 6.1 0.06366
GW 32 1 1.4 3.45 6.1 1.4 3.05 6.1 0.06366
GW 33 1 1.4 3.45 6.1 1.9 3.45 6.1 0.06366
GW 34 1 1.4 3.45 7.1 1.4 3.45 7.6 0.07285
GW 34 1 1.4 3.45 7.6 1.9 3.45 7.6 0.07285
GW 35 1 1.4 3.45 7.1 1.4 3.8 7.1 0.0557
GW 35 1 1.4 3.8 7.1 1.4 3.8 6.1 0.0557
GW 35 1 1.4 3.8 6.1 1.4 3.45 6.1 0.0557
GW 36 1 1.9 3.45 7.1 1.9 3.8 7.1 0.0557
GW 36 1 1.9 3.8 7.1 1.9 3.8 6.1 0.0557
GW 36 1 1.9 3.8 6.1 1.9 3.45 6.1 0.0557
GW 37 1 1.9 3.45 7.6 1.9 3.8 7.6 0.0557
GW 37 1 1.9 3.8 7.6 1.9 3.8 7.1 0.0557
GW 38 1 1.4 3.45 7.6 1.4 3.8 7.6 0.0557
GW 38 1 1.4 3.8 7.6 1.4 3.8 7.1 0.0557
GW 39 1 1.9 3.8 6.1 1.4 3.8 6.1 0.0557
GW 40 1 1.9 3.8 7.1 1.4 3.8 7.1 0.07285
GW 40 1 1.4 3.8 7.6 1.9 3.8 7.6 0.07285
GW 42 1 1.9 3.8 7.6 1.65 3.625 7.6 0.04857
GW 42 1 1.65 3.625 7.6 1.9 3.45 7.6 0.04857
GW 43 1 1.4 3.8 7.6 1.65 3.625 7.6 0.04857
GW 43 1 1.65 3.625 7.6 1.4 3.45 7.6 0.04857
GW 47 1 1.4 3.45 6.1 0.9 3.5 6.1 0.06366
GW 47 1 0.9 3.5 6.1 0.0 3.5 6.1 0.06366
GW 47 1 0.0 3.5 6.1 0.0 3.05 6.1 0.06366
GW 48 1 0.9 3.5 6.1 1.4 3.8 6.1 0.07997
GW 49 1 1.25 4.855 6.1 0.9 3.5 6.1 0.0928
GW 49 1 1.4 3.8 6.1 1.25 4.855 6.1 0.0928
GW 50 1 1.9 3.8 6.1 1.9 4.855 6.1 0.07162
GW 50 1 1.9 4.855 6.1 1.25 4.855 6.1 0.07162
GW 51 1 1.9 4.855 6.1 1.9 5.625 6.1 0.07162
GW 51 1 1.9 5.625 6.1 0.45 5.625 6.1 0.07162
GW 51 1 0.45 5.625 6.1 1.25 4.855 6.1 0.07162
GW 52 1 1.9 5.625 6.1 2.2 5.625 6.1 0.04775
GW 52 1 2.2 5.625 6.1 2.2 4.855 6.1 0.04775
GW 52 1 2.2 4.855 6.1 1.9 4.855 6.1 0.04775
GW 53 1 1.9 3.8 6.1 2.2 3.8 6.1 0.04775
GW 53 1 2.2 3.8 6.1 2.2 4.855 6.1 0.04775
GW 54 2 0.0 0.0 6.1 0.0 0.0 3.0 0.2817
GW 54 1 0.0 0.0 3.0 1.9 0.0 3.0 0.2817
GW 54 2 1.9 0.0 3.0 1.9 0.0 6.1 0.2817
GW 55 2 1.9 1.5 6.1 1.9 1.5 3.0 0.19099
GW 55 1 1.9 1.5 3.0 1.9 0.0 3.0 0.19099
GW 56 2 1.9 2.3 6.1 1.9 2.3 3.0 0.09549
GW 56 1 1.9 2.3 3.0 1.9 1.5 3.0 0.09549
GW 57 2 1.9 2.8 6.1 1.9 2.8 3.0 0.05968
GW 57 1 1.9 2.8 3.0 1.9 2.3 3.0 0.05968
GW 58 2 1.9 3.05 6.1 1.9 3.05 3.0 0.03979
GW 58 1 1.9 3.05 3.0 1.9 2.8 3.0 0.03979
GW 59 1 1.9 3.05 3.0 1.9 3.45 3.0 0.06366
GW 59 2 1.9 3.45 3.0 1.9 3.45 6.1 0.06366
GW 60 1 1.9 3.45 3.0 1.9 3.8 3.0 0.0557
GW 60 2 1.9 3.8 3.0 1.9 3.8 6.1 0.0557
GW 61 2 2.2 3.8 6.1 2.2 3.8 3.0 0.04775
GW 61 1 2.2 3.8 3.0 1.9 3.8 3.0 0.04775
GW 62 2 2.2 4.855 3.0 2.2 4.855 6.1 0.11652
GW 62 1 2.2 3.8 3.0 2.2 4.855 3.0 0.11652
GW 63 2 2.2 4.855 3.0 2.2 5.625 5.5 0.07162
GW 63 1 2.2 5.625 5.5 2.2 5.625 6.1 0.07162
GW 64 1 2.2 4.855 3.0 2.2 5.625 3.0 0.06127
GW 64 2 2.2 5.625 3.0 2.2 5.625 5.5 0.06127
GW 65 1 2.2 5.625 5.5 1.9 5.625 5.5 0.04775
GW 65 1 1.9 5.625 5.5 1.9 5.625 6.1 0.04775
GW 66 1 1.9 5.625 5.5 0.45 5.625 5.5 0.09549
GW 66 1 0.45 5.625 5.5 0.45 5.625 6.1 0.09549
GW 67 1 0.45 5.625 5.5 0.0 5.625 5.5 0.07162
GW 67 1 0.0 5.625 5.5 0.0 5.625 6.1 0.07162
GW 67 1 0.0 5.625 6.1 0.45 5.625 6.1 0.07162
GW 68 1 0.0 5.625 5.5 0.0 7.625 5.5 0.07162
GW 68 1 0.0 7.625 5.5 1.25 7.625 5.5 0.07162
GW 68 2 1.25 7.625 5.5 0.45 5.625 5.5 0.07162
GW 69 1 1.875 9.825 5.5 0.0 9.825 5.5 0.07759
GW 69 2 0.0 9.825 5.5 0.0 7.625 5.5 0.07759
GW 69 2 1.25 7.625 5.5 1.875 9.825 5.5 0.07759
GW 70 2 1.9 5.625 5.5 1.25 7.625 5.5 0.07759
GW 71 3 2.2 5.625 5.5 2.2 9.825 5.5 0.05173
GW 71 1 2.2 9.825 5.5 1.875 9.825 5.5 0.05173
GW 72 3 2.2 5.625 3.0 2.2 9.825 3.0 0.0746
GW 72 2 2.2 9.825 3.0 2.2 9.825 5.5 0.0746
GW 73 2 1.9 9.825 3.0 1.875 9.825 5.5 0.04974
GW 73 1 2.2 9.825 3.0 1.9 9.825 3.0 0.04974
GW 74 2 0.0 9.825 5.5 0.0 9.825 3.0 0.11937
GW 74 1 0.0 9.825 3.0 1.9 9.825 3.0 0.11937
GW 76 1 0.0 0.0 7.6 -1.9 0.0 7.6 0.07162
GW 76 1 -1.9 0.0 7.6 -1.9 1.5 7.6 0.07162
GW 76 1 -1.9 1.5 7.6 0.0 1.5 7.6 0.07162
GW 77 1 -1.9 1.5 7.6 -1.9 2.3 7.6 0.07162
GW 77 1 -1.9 2.3 7.6 0.0 2.3 7.6 0.07162
GW 78 2 0.0 2.3 6.1 -1.9 2.3 7.3 0.04775
GW 78 1 -1.9 2.3 7.3 -1.9 2.3 7.6 0.04775
GW 79 1 -1.9 2.3 7.3 -1.9 1.5 7.3 0.04775
GW 79 1 -1.9 1.5 7.3 -1.9 1.5 7.6 0.04775
GW 80 1 -2.2 2.3 7.6 -2.2 2.8 7.6 0.04775
GW 80 1 -2.2 2.8 7.6 -2.2 2.8 7.3 0.04775
GW 80 1 -2.2 2.8 7.3 -2.2 2.3 7.3 0.04775
GW 80 1 -2.2 2.3 7.3 -2.2 2.3 7.6 0.04775
GW 81 1 -1.9 2.3 7.6 -1.9 2.8 7.6 0.04775
GW 81 1 -1.9 2.8 7.6 -1.9 2.8 7.3 0.04775
GW 81 1 -1.9 2.8 7.3 -1.9 2.3 7.3 0.04775
GW 82 1 -2.2 1.5 7.6 -2.2 2.3 7.6 0.04775
GW 82 1 -2.2 2.3 7.3 -2.2 1.5 7.3 0.04775
GW 82 1 -2.2 1.5 7.3 -2.2 1.5 7.6 0.04775
GW 83 1 -1.9 2.3 7.6 -2.2 2.3 7.6 0.04775
GW 83 1 -2.2 1.5 7.6 -1.9 1.5 7.6 0.04775
GW 84 1 -1.9 2.3 7.3 -2.2 2.3 7.3 0.04775
GW 84 1 -2.2 1.5 7.3 -1.9 1.5 7.3 0.04775
GW 85 1 -1.9 2.8 7.3 -2.2 2.8 7.3 0.04775
GW 86 1 -1.9 2.8 7.6 -2.05 2.55 7.6 0.0464
GW 86 1 -2.05 2.55 7.6 -1.9 2.3 7.6 0.0464
GW 87 1 -2.2 2.3 7.6 -2.05 2.55 7.6 0.0464
GW 88 1 -2.05 2.55 7.6 -2.2 2.8 7.6 0.0464
GW 89 1 -1.9 2.8 7.6 -2.2 2.8 7.6 0.0464
GW 93 1 -1.9 0.0 7.6 -1.9 0.0 7.3 0.04775
GW 93 1 -1.9 0.0 7.3 0.0 0.0 7.3 0.04775
GW 94 1 -1.9 0.0 7.3 -1.9 0.0 6.1 0.19099
GW 94 1 -1.9 0.0 6.1 0.0 0.0 6.1 0.19099
GW 95 1 -1.9 1.5 7.3 -1.9 0.0 7.3 0.04775
GW 96 1 -1.9 1.5 7.3 -1.9 1.5 6.1 0.19099
GW 96 1 -1.9 1.5 6.1 -1.9 0.0 6.1 0.19099
GW 97 1 -1.9 1.5 6.1 -1.9 2.3 6.1 0.11937
GW 97 1 -1.9 2.3 6.1 -1.9 2.3 7.3 0.11937
GW 98 1 -1.9 2.3 6.1 -1.9 2.8 6.1 0.05968
GW 98 1 -1.9 2.8 6.1 -1.9 2.8 7.3 0.05968
GW 99 1 -1.9 2.8 7.3 -1.9 3.05 7.1 0.03979
GW 99 1 -1.9 3.05 7.1 -1.9 3.05 6.1 0.03979
GW 99 1 -1.9 3.05 6.1 -1.9 2.8 6.1 0.03979
GW 100 1 -1.9 2.8 7.6 -1.9 3.05 7.6 0.03979
GW 100 1 -1.9 3.05 7.6 -1.9 3.05 7.1 0.03979
GW 101 1 0.0 2.3 6.1 -1.9 2.3 6.1 0.07958
GW 101 1 -1.9 2.8 6.1 0.0 2.8 6.1 0.07958
GW 102 1 -1.9 2.8 6.1 -1.4 3.05 6.1 0.05968
GW 102 1 -1.4 3.05 6.1 0.0 3.05 6.1 0.05968
GW 103 1 -1.9 3.05 7.1 -1.9 3.45 7.1 0.06366
GW 103 1 -1.9 3.45 7.1 -1.9 3.45 6.1 0.06366
GW 103 1 -1.9 3.45 6.1 -1.9 3.05 6.1 0.06366
GW 104 1 -1.9 3.05 7.6 -1.9 3.45 7.6 0.06366
GW 104 1 -1.9 3.45 7.6 -1.9 3.45 7.1 0.06366
GW 105 1 -1.9 3.05 7.1 -1.4 3.05 7.1 0.06366
GW 105 1 -1.4 3.05 7.1 -1.4 3.45 7.1 0.06366
GW 105 1 -1.4 3.45 7.1 -1.9 3.45 7.1 0.06366
GW 106 1 -1.9 3.05 6.1 -1.4 3.05 6.1 0.03979
GW 107 1 -1.4 3.05 7.1 -1.4 3.05 6.1 0.07958
GW 108 1 -1.4 3.45 7.1 -1.4 3.45 6.1 0.06366
GW 108 1 -1.4 3.45 6.1 -1.4 3.05 6.1 0.06366
GW 109 1 -1.4 3.45 6.1 -1.9 3.45 6.1 0.06366
GW 110 1 -1.4 3.45 7.1 -1.4 3.45 7.6 0.07285
GW 110 1 -1.4 3.45 7.6 -1.9 3.45 7.6 0.07285
GW 111 1 -1.4 3.45 7.1 -1.4 3.8 7.1 0.0557
GW 111 1 -1.4 3.8 7.1 -1.4 3.8 6.1 0.0557
GW 111 1 -1.4 3.8 6.1 -1.4 3.45 6.1 0.0557
GW 112 1 -1.9 3.45 7.1 -1.9 3.8 7.1 0.0557
GW 112 1 -1.9 3.8 7.1 -1.9 3.8 6.1 0.0557
GW 112 1 -1.9 3.8 6.1 -1.9 3.45 6.1 0.0557
GW 113 1 -1.9 3.45 7.6 -1.9 3.8 7.6 0.0557
GW 113 1 -1.9 3.8 7.6 -1.9 3.8 7.1 0.0557
GW 114 1 -1.4 3.45 7.6 -1.4 3.8 7.6 0.0557
GW 114 1 -1.4 3.8 7.6 -1.4 3.8 7.1 0.0557
GW 115 1 -1.9 3.8 6.1 -1.4 3.8 6.1 0.0557
GW 116 1 -1.9 3.8 7.1 -1.4 3.8 7.1 0.07285
GW 116 1 -1.4 3.8 7.6 -1.9 3.8 7.6 0.07285
GW 118 1 -1.9 3.8 7.6 -1.65 3.625 7.6 0.04857
GW 118 1 -1.65 3.625 7.6 -1.9 3.45 7.6 0.04857
GW 119 1 -1.4 3.8 7.6 -1.65 3.625 7.6 0.04857
GW 119 1 -1.65 3.625 7.6 -1.4 3.45 7.6 0.04857
GW 123 1 -1.4 3.45 6.1 -0.9 3.5 6.1 0.06366
GW 123 1 -0.9 3.5 6.1 0.0 3.5 6.1 0.06366
GW 124 1 -0.9 3.5 6.1 -1.4 3.8 6.1 0.07997
GW 125 1 -1.25 4.855 6.1 -0.9 3.5 6.1 0.0928
GW 125 1 -1.4 3.8 6.1 -1.25 4.855 6.1 0.0928
GW 126 1 -1.9 3.8 6.1 -1.9 4.855 6.1 0.07162
GW 126 1 -1.9 4.855 6.1 -1.25 4.855 6.1 0.07162
GW 127 1 -1.9 4.855 6.1 -1.9 5.625 6.1 0.07162
GW 127 1 -1.9 5.625 6.1 -0.45 5.625 6.1 0.07162
GW 127 1 -0.45 5.625 6.1 -1.25 4.855 6.1 0.07162
GW 128 1 -1.9 5.625 6.1 -2.2 5.625 6.1 0.04775
GW 128 1 -2.2 5.625 6.1 -2.2 4.855 6.1 0.04775
GW 128 1 -2.2 4.855 6.1 -1.9 4.855 6.1 0.04775
GW 129 1 -1.9 3.8 6.1 -2.2 3.8 6.1 0.04775
GW 129 1 -2.2 3.8 6.1 -2.2 4.855 6.1 0.04775
GW 130 2 -1.9 0.0 6.1 -1.9 0.0 3.0 0.2817
GW 130 1 -1.9 0.0 3.0 0.0 0.0 3.0 0.2817
GW 131 2 -1.9 1.5 6.1 -1.9 1.5 3.0 0.19099
GW 131 1 -1.9 1.5 3.0 -1.9 0.0 3.0 0.19099
GW 132 2 -1.9 2.3 6.1 -1.9 2.3 3.0 0.09549
GW 132 1 -1.9 2.3 3.0 -1.9 1.5 3.0 0.09549
GW 133 2 -1.9 2.8 6.1 -1.9 2.8 3.0 0.05968
GW 133 1 -1.9 2.8 3.0 -1.9 2.3 3.0 0.05968
GW 134 2 -1.9 3.05 6.1 -1.9 3.05 3.0 0.03979
GW 134 1 -1.9 3.05 3.0 -1.9 2.8 3.0 0.03979
GW 135 1 -1.9 3.05 3.0 -1.9 3.45 3.0 0.06366
GW 135 2 -1.9 3.45 3.0 -1.9 3.45 6.1 0.06366
GW 136 1 -1.9 3.45 3.0 -1.9 3.8 3.0 0.0557
GW 136 2 -1.9 3.8 3.0 -1.9 3.8 6.1 0.0557
GW 137 2 -2.2 3.8 6.1 -2.2 3.8 3.0 0.04775
GW 137 1 -2.2 3.8 3.0 -1.9 3.8 3.0 0.04775
GW 138 2 -2.2 4.855 3.0 -2.2 4.855 6.1 0.11652
GW 138 1 -2.2 3.8 3.0 -2.2 4.855 3.0 0.11652
GW 139 2 -2.2 4.855 3.0 -2.2 5.625 5.5 0.07162
GW 139 1 -2.2 5.625 5.5 -2.2 5.625 6.1 0.07162
GW 140 1 -2.2 4.855 3.0 -2.2 5.625 3.0 0.06127
GW 140 2 -2.2 5.625 3.0 -2.2 5.625 5.5 0.06127
GW 141 1 -2.2 5.625 5.5 -1.9 5.625 5.5 0.04775
GW 141 1 -1.9 5.625 5.5 -1.9 5.625 6.1 0.04775
GW 142 1 -1.9 5.625 5.5 -0.45 5.625 5.5 0.09549
GW 142 1 -0.45 5.625 5.5 -0.45 5.625 6.1 0.09549
GW 143 1 -0.45 5.625 5.5 0.0 5.625 5.5 0.07162
GW 143 1 0.0 5.625 6.1 -0.45 5.625 6.1 0.07162
GW 144 1 0.0 7.625 5.5 -1.25 7.625 5.5 0.07162
GW 144 2 -1.25 7.625 5.5 -0.45 5.625 5.5 0.07162
GW 145 1 -1.875 9.825 5.5 0.0 9.825 5.5 0.07759
GW 145 2 -1.25 7.625 5.5 -1.875 9.825 5.5 0.07759
GW 146 2 -1.9 5.625 5.5 -1.25 7.625 5.5 0.07759
GW 147 3 -2.2 5.625 5.5 -2.2 9.825 5.5 0.05173
GW 147 1 -2.2 9.825 5.5 -1.875 9.825 5.5 0.05173
GW 148 3 -2.2 5.625 3.0 -2.2 9.825 3.0 0.0746
GW 148 2 -2.2 9.825 3.0 -2.2 9.825 5.5 0.0746
GW 149 2 -1.9 9.825 3.0 -1.875 9.825 5.5 0.04974
GW 149 1 -2.2 9.825 3.0 -1.9 9.825 3.0 0.04974
GW 150 1 -1.9 9.825 3.0 0.0 9.825 3.0 0.11937
GW 152 1 1.9 0.0 7.6 1.65 0.25 7.6 0.05627
GW 155 1 1.9 9.825 3.0 2.2 10.225 3.0 0.07162
GW 155 2 2.2 10.225 3.0 0.0 10.225 3.0 0.07162
GW 155 1 0.0 10.225 3.0 0.0 9.825 3.0 0.07162
GW 156 1 2.2 9.825 3.0 2.2 10.225 3.0 0.06366
GW 156 1 2.2 10.225 3.0 3.96 10.5 3.0 0.06366
GW 156 1 3.96 10.5 3.0 2.2 9.825 3.0 0.06366
GW 157 1 2.2 14.885 3.0 2.2 13.125 3.0 0.24608
GW 157 2 2.2 13.125 3.0 3.96 12.0 3.0 0.24608
GW 157 2 3.96 12.0 3.0 3.96 14.885 3.0 0.24608
GW 157 1 3.96 14.885 3.0 2.2 14.885 3.0 0.24608
GW 158 2 2.2 10.225 3.0 2.2 13.125 3.0 0.17905
GW 158 1 3.96 12.0 3.0 3.96 10.5 3.0 0.17905
GW 159 7 3.96 14.885 3.0 3.96 28.11 3.0 0.17507
GW 159 4 3.96 28.11 3.0 0.0 23.11 3.0 0.17507
GW 159 2 0.0 23.11 3.0 0.0 20.0 3.0 0.17507
GW 159 3 0.0 20.0 3.0 2.2 14.885 3.0 0.17507
GW 160 3 3.96 10.5 3.0 3.96 5.625 3.0 0.18382
GW 160 1 3.96 5.625 3.0 2.2 5.625 3.0 0.18382
GW 161 2 3.96 3.8 3.0 2.2 4.855 3.0 0.12255
GW 161 1 3.96 5.625 3.0 3.96 3.8 3.0 0.12255
GW 162 1 2.2 3.8 3.0 3.96 3.8 3.0 0.11005
GW 163 1 1.9 3.45 3.0 2.2 3.8 3.0 0.04775
GW 164 2 1.9 3.05 3.0 3.96 3.05 3.0 0.05968
GW 164 1 3.96 3.05 3.0 3.96 3.8 3.0 0.05968
GW 165 1 3.96 3.05 3.0 3.96 2.5 3.0 0.03979
GW 165 2 3.96 2.5 3.0 1.9 2.8 3.0 0.03979
GW 166 2 1.9 2.3 3.0 3.96 1.8 3.0 0.09549
GW 166 1 3.96 1.8 3.0 3.96 2.5 3.0 0.09549
GW 167 2 1.9 1.5 3.0 3.96 1.8 3.0 0.06366
GW 168 2 1.9 0.0 3.0 3.96 0.0 3.0 0.12295
GW 168 1 3.96 0.0 3.0 3.96 1.8 3.0 0.12295
GW 169 4 3.96 0.0 3.0 3.74 -6.05 3.0 0.08196
GW 169 4 3.74 -6.05 3.0 1.9 0.0 3.0 0.08196
GW 170 2 3.74 -6.05 3.0 0.0 -6.05 3.0 0.1878
GW 170 4 0.0 -6.05 3.0 0.0 0.0 3.0 0.1878
GW 171 2 3.52 -9.35 3.0 0.0 -9.35 3.0 0.24608
GW 171 2 0.0 -9.35 3.0 0.0 -6.05 3.0 0.24608
GW 171 2 3.74 -6.05 3.0 3.52 -9.35 3.0 0.24608
GW 172 2 3.52 -9.35 3.0 2.97 -12.65 3.0 0.24608
GW 172 2 2.97 -12.65 3.0 0.0 -12.65 3.0 0.24608
GW 172 2 0.0 -12.65 3.0 0.0 -9.35 3.0 0.24608
GW 173 2 2.25 -16.28 3.0 2.97 -12.65 3.0 0.17905
GW 173 2 0.0 -12.65 3.0 0.0 -16.28 3.0 0.17905
GW 173 2 0.0 -16.28 3.0 2.25 -16.28 3.0 0.17905
GW 174 3 0.0 -16.28 3.0 0.0 -20.46 3.0 0.11937
GW 174 3 0.0 -20.46 3.0 2.25 -16.28 3.0 0.11937
GW 175 2 3.46 31.0 1.0 0.0 31.0 1.0 0.17257
GW 175 2 0.0 31.0 1.0 0.0 31.8 3.0 0.17257
GW 175 2 0.0 31.8 3.0 3.96 31.8 3.0 0.17257
GW 175 2 3.96 31.8 3.0 3.46 31.0 1.0 0.17257
GW 176 2 3.46 31.0 1.0 3.46 28.11 1.0 0.16711
GW 176 2 3.46 28.11 1.0 3.96 28.11 3.0 0.16711
GW 176 2 3.96 28.11 3.0 3.96 31.8 3.0 0.16711
GW 177 2 3.96 12.0 3.0 3.46 12.0 1.0 0.11937
GW 177 2 3.46 12.0 1.0 3.96 10.5 3.0 0.11937
GW 178 2 3.96 5.625 3.0 3.46 4.855 1.0 0.16563
GW 178 4 3.46 4.855 1.0 3.46 12.0 1.0 0.16563
GW 179 2 3.46 4.855 1.0 3.96 3.8 3.0 0.14523
GW 180 2 3.96 3.05 3.0 3.46 3.05 1.0 0.06565
GW 180 1 3.46 3.05 1.0 3.46 4.855 1.0 0.06565
GW 181 2 3.46 3.05 1.0 3.96 2.5 3.0 0.04377
GW 182 2 3.46 3.05 1.0 3.46 1.0 1.0 0.21884
GW 182 2 3.46 1.0 1.0 3.96 1.8 3.0 0.21884
GW 183 1 3.46 1.0 1.0 3.46 0.0 1.0 0.15915
GW 183 2 3.46 0.0 1.0 3.96 0.0 3.0 0.15915
GW 184 2 3.74 -6.05 3.0 3.24 -6.05 1.0 0.16405
GW 184 4 3.24 -6.05 1.0 3.46 0.0 1.0 0.16405
GW 185 2 3.24 -6.05 1.0 3.02 -9.35 1.0 0.16405
GW 185 2 3.02 -9.35 1.0 3.52 -9.35 3.0 0.16405
GW 186 2 2.97 -12.65 3.0 2.47 -12.65 1.0 0.16405
GW 186 2 2.47 -12.65 1.0 3.02 -9.35 1.0 0.16405
GW 187 2 2.25 -16.28 3.0 1.25 -16.28 1.0 0.16998
GW 187 2 1.25 -16.28 1.0 2.47 -12.65 1.0 0.16998
GW 188 2 2.25 -16.28 3.0 0.0 -18.04 1.0 0.17179
GW 188 2 0.0 -18.04 1.0 1.25 -16.28 1.0 0.17179
GW 189 2 0.0 -20.46 3.0 0.0 -18.04 1.0 0.17391
GW 190 2 3.96 14.885 3.0 3.46 14.885 1.0 0.16405
GW 190 2 3.46 14.885 1.0 3.46 12.0 1.0 0.16405
GW 191 2 2.2 14.885 3.0 0.0 14.885 3.0 0.11671
GW 191 3 0.0 14.885 3.0 0.0 20.0 3.0 0.11671
GW 192 5 0.0 31.8 3.0 0.0 23.11 3.0 0.23735
GW 193 7 3.46 14.885 1.0 3.46 28.11 1.0 0.16405
GW 194 2 0.0 10.225 5.2 2.2 10.225 5.2 0.17507
GW 194 2 2.2 10.225 5.2 2.2 10.225 3.0 0.17507
GW 194 2 0.0 10.225 3.0 0.0 10.225 5.2 0.17507
GW 195 1 2.2 13.125 3.0 2.2 13.125 4.1 0.17507
GW 195 1 2.2 13.125 4.1 2.2 12.425 5.2 0.17507
GW 195 2 2.2 12.425 5.2 2.2 10.225 5.2 0.17507
GW 196 1 2.2 14.885 3.0 2.2 14.885 4.1 0.17507
GW 196 1 2.2 14.885 4.1 2.2 13.125 4.1 0.17507
GW 197 2 2.2 14.885 4.1 0.0 14.885 4.1 0.17507
GW 197 1 0.0 14.885 4.1 0.0 14.885 3.0 0.17507
GW 198 2 2.2 13.125 4.1 0.0 13.125 4.1 0.28011
GW 198 1 0.0 13.125 4.1 0.0 14.885 4.1 0.28011
GW 199 2 2.2 12.425 5.2 0.0 12.425 5.2 0.20751
GW 199 1 0.0 12.425 5.2 0.0 13.125 4.1 0.20751
GW 200 2 0.0 10.225 5.2 0.0 12.425 5.2 0.17507
GW 202 1 -1.9 9.825 3.0 -2.2 10.225 3.0 0.07162
GW 202 2 -2.2 10.225 3.0 0.0 10.225 3.0 0.07162
GW 203 1 -2.2 9.825 3.0 -2.2 10.225 3.0 0.06366
GW 203 1 -2.2 10.225 3.0 -3.96 10.5 3.0 0.06366
GW 203 1 -3.96 10.5 3.0 -2.2 9.825 3.0 0.06366
GW 204 1 -2.2 14.885 3.0 -2.2 13.125 3.0 0.24608
GW 204 2 -2.2 13.125 3.0 -3.96 12.0 3.0 0.24608
GW 204 2 -3.96 12.0 3.0 -3.96 14.885 3.0 0.24608
GW 204 1 -3.96 14.885 3.0 -2.2 14.885 3.0 0.24608
GW 205 2 -2.2 10.225 3.0 -2.2 13.125 3.0 0.17905
GW 205 1 -3.96 12.0 3.0 -3.96 10.5 3.0 0.17905
GW 206 7 -3.96 14.885 3.0 -3.96 28.11 3.0 0.17507
GW 206 4 -3.96 28.11 3.0 0.0 23.11 3.0 0.17507
GW 206 3 0.0 20.0 3.0 -2.2 14.885 3.0 0.17507
GW 207 3 -3.96 10.5 3.0 -3.96 5.625 3.0 0.18382
GW 207 1 -3.96 5.625 3.0 -2.2 5.625 3.0 0.18382
GW 208 2 -3.96 3.8 3.0 -2.2 4.855 3.0 0.12255
GW 208 1 -3.96 5.625 3.0 -3.96 3.8 3.0 0.12255
GW 209 1 -2.2 3.8 3.0 -3.96 3.8 3.0 0.11005
GW 210 1 -1.9 3.45 3.0 -2.2 3.8 3.0 0.04775
GW 211 2 -1.9 3.05 3.0 -3.96 3.05 3.0 0.05968
GW 211 1 -3.96 3.05 3.0 -3.96 3.8 3.0 0.05968
GW 212 1 -3.96 3.05 3.0 -3.96 2.5 3.0 0.03979
GW 212 2 -3.96 2.5 3.0 -1.9 2.8 3.0 0.03979
GW 213 2 -1.9 2.3 3.0 -3.96 1.8 3.0 0.09549
GW 213 1 -3.96 1.8 3.0 -3.96 2.5 3.0 0.09549
GW 214 2 -1.9 1.5 3.0 -3.96 1.8 3.0 0.06366
GW 215 2 -1.9 0.0 3.0 -3.96 0.0 3.0 0.12295
GW 215 1 -3.96 0.0 3.0 -3.96 1.8 3.0 0.12295
GW 216 4 -3.96 0.0 3.0 -3.74 -6.05 3.0 0.08196
GW 216 4 -3.74 -6.05 3.0 -1.9 0.0 3.0 0.08196
GW 217 2 -3.74 -6.05 3.0 0.0 -6.05 3.0 0.1878
GW 218 2 -3.52 -9.35 3.0 0.0 -9.35 3.0 0.24608
GW 218 2 -3.74 -6.05 3.0 -3.52 -9.35 3.0 0.24608
GW 219 2 -3.52 -9.35 3.0 -2.97 -12.65 3.0 0.24608
GW 219 2 -2.97 -12.65 3.0 0.0 -12.65 3.0 0.24608
GW 220 2 -2.25 -16.28 3.0 -2.97 -12.65 3.0 0.17905
GW 220 2 0.0 -16.28 3.0 -2.25 -16.28 3.0 0.17905
GW 221 3 0.0 -20.46 3.0 -2.25 -16.28 3.0 0.11937
GW 222 2 -3.46 31.0 1.0 0.0 31.0 1.0 0.17257
GW 222 2 0.0 31.8 3.0 -3.96 31.8 3.0 0.17257
GW 222 2 -3.96 31.8 3.0 -3.46 31.0 1.0 0.17257
GW 223 2 -3.46 31.0 1.0 -3.46 28.11 1.0 0.16711
GW 223 2 -3.46 28.11 1.0 -3.96 28.11 3.0 0.16711
GW 223 2 -3.96 28.11 3.0 -3.96 31.8 3.0 0.16711
GW 224 2 -3.96 12.0 3.0 -3.46 12.0 1.0 0.11937
GW 224 2 -3.46 12.0 1.0 -3.96 10.5 3.0 0.11937
GW 225 2 -3.96 5.625 3.0 -3.46 4.855 1.0 0.16563
GW 225 4 -3.46 4.855 1.0 -3.46 12.0 1.0 0.16563
GW 226 2 -3.46 4.855 1.0 -3.96 3.8 3.0 0.14523
GW 227 2 -3.96 3.05 3.0 -3.46 3.05 1.0 0.06565
GW 227 1 -3.46 3.05 1.0 -3.46 4.855 1.0 0.06565
GW 228 2 -3.46 3.05 1.0 -3.96 2.5 3.0 0.04377
GW 229 2 -3.46 3.05 1.0 -3.46 1.0 1.0 0.21884
GW 229 2 -3.46 1.0 1.0 -3.96 1.8 3.0 0.21884
GW 230 1 -3.46 1.0 1.0 -3.46 0.0 1.0 0.15915
GW 230 2 -3.46 0.0 1.0 -3.96 0.0 3.0 0.15915
GW 231 4 -3.46 0.0 1.0 -3.24 -6.05 1.0 0.16405
GW 231 2 -3.24 -6.05 1.0 -3.74 -6.05 3.0 0.16405
GW 232 2 -3.24 -6.05 1.0 -3.02 -9.35 1.0 0.16405
GW 232 2 -3.02 -9.35 1.0 -3.52 -9.35 3.0 0.16405
GW 233 2 -2.97 -12.65 3.0 -2.47 -12.65 1.0 0.16405
GW 233 2 -2.47 -12.65 1.0 -3.02 -9.35 1.0 0.16405
GW 234 2 -2.25 -16.28 3.0 -1.25 -16.28 1.0 0.16998
GW 234 2 -1.25 -16.28 1.0 -2.47 -12.65 1.0 0.16998
GW 235 2 -2.25 -16.28 3.0 0.0 -18.04 1.0 0.17179
GW 235 2 0.0 -18.04 1.0 -1.25 -16.28 1.0 0.17179
GW 237 2 -3.96 14.885 3.0 -3.46 14.885 1.0 0.16405
GW 237 2 -3.46 14.885 1.0 -3.46 12.0 1.0 0.16405
GW 238 2 -2.2 14.885 3.0 0.0 14.885 3.0 0.11671
GW 240 7 -3.46 14.885 1.0 -3.46 28.11 1.0 0.16405
GW 241 2 -2.2 10.225 3.0 -2.2 10.225 5.2 0.17507
GW 241 2 -2.2 10.225 5.2 0.0 10.225 5.2 0.17507
GW 242 1 -2.2 13.125 3.0 -2.2 13.125 4.1 0.17507
GW 242 1 -2.2 13.125 4.1 -2.2 12.425 5.2 0.17507
GW 242 2 -2.2 12.425 5.2 -2.2 10.225 5.2 0.17507
GW 243 1 -2.2 14.885 3.0 -2.2 14.885 4.1 0.17507
GW 243 1 -2.2 14.885 4.1 -2.2 13.125 4.1 0.17507
GW 244 2 -2.2 14.885 4.1 0.0 14.885 4.1 0.17507
GW 245 2 -2.2 13.125 4.1 0.0 13.125 4.1 0.28011
GW 246 2 -2.2 12.425 5.2 0.0 12.425 5.2 0.20751
GW 260 1 1.875 9.825 9.24 1.25 8.065 9.24 0.15915
GW 260 1 1.25 8.065 9.24 2.25 8.065 9.24 0.15915
GW 260 1 2.25 8.065 9.24 2.875 9.825 9.24 0.15915
GW 260 1 2.875 9.825 9.24 1.875 9.825 9.24 0.15915
GW 263 1 1.25 8.285 10.56 0.0 8.285 10.56 0.19894
GW 263 1 0.0 8.285 10.56 0.0 9.825 10.56 0.19894
GW 263 1 0.0 9.825 10.56 1.875 9.825 10.56 0.19894
GW 263 1 1.875 9.825 10.56 1.25 8.285 10.56 0.19894
GW 264 1 1.875 9.825 10.56 2.875 9.825 10.56 0.15915
GW 264 1 2.875 9.825 10.56 2.25 8.285 10.56 0.15915
GW 264 1 2.25 8.285 10.56 1.25 8.285 10.56 0.15915
GW 281 1 -1.875 9.825 9.24 -1.25 8.065 9.24 0.15915
GW 281 1 -1.25 8.065 9.24 -2.25 8.065 9.24 0.15915
GW 281 1 -2.25 8.065 9.24 -2.875 9.825 9.24 0.15915
GW 281 1 -2.875 9.825 9.24 -1.875 9.825 9.24 0.15915
GW 284 1 -1.25 8.285 10.56 0.0 8.285 10.56 0.19894
GW 284 1 0.0 9.825 10.56 -1.875 9.825 10.56 0.19894
GW 284 1 -1.875 9.825 10.56 -1.25 8.285 10.56 0.19894
GW 298 1 -1.25 8.725 12.76 0.0 9.825 12.76 0.26501
GW 298 1 0.0 9.825 12.76 -1.875 9.825 12.76 0.26501
GW 298 1 -1.875 9.825 12.76 -1.25 8.725 12.76 0.26501
GW 54 1 0.0 0.0 4.55 1.9 0.0 4.55 0.2817
GW 55 1 1.9 0.0 4.55 1.9 1.5 4.55 0.19099
GW 56 1 1.9 1.5 4.55 1.9 2.3 4.55 0.09549
GW 57 1 1.9 2.3 4.55 1.9 2.8 4.55 0.05968
GW 58 1 1.9 2.8 4.55 1.9 3.05 4.55 0.03979
GW 59 1 1.9 3.05 4.55 1.9 3.45 4.55 0.06366
GW 60 1 1.9 3.45 4.55 1.9 3.8 4.55 0.0557
GW 61 1 2.2 3.8 4.55 1.9 3.8 4.55 0.04775
GW 62 1 2.2 4.855 4.55 2.2 3.8 4.55 0.11652
GW 64 1 2.2 5.625 4.25 2.2 5.24 4.25 0.06127
GW 68 1 0.0 7.625 5.5 0.85 6.625 5.5 0.07162
GW 69 1 0.0 8.725 5.5 1.5625 8.725 5.5 0.07759
GW 70 1 1.575 6.625 5.5 0.85 6.625 5.5 0.07759
GW 71 1 2.2 7.025 5.5 1.575 6.625 5.5 0.05173
GW 71 1 2.2 8.425 5.5 1.25 7.625 5.5 0.05173
GW 72 2 2.2 7.025 3.0 2.2 7.025 5.5 0.0746
GW 72 2 2.2 8.425 3.0 2.2 8.425 5.5 0.0746
GW 72 1 2.2 9.825 4.25 2.2 8.425 4.25 0.0746
GW 72 1 2.2 8.425 4.25 2.2 7.025 4.25 0.0746
GW 72 1 2.2 7.025 4.25 2.2 5.625 4.25 0.0746
GW 73 1 2.2 9.825 4.25 1.8875 9.825 4.25 0.04974
GW 74 1 0.0 9.825 4.25 1.8875 9.825 4.25 0.11937
GW 130 1 0.0 0.0 4.55 -1.9 0.0 4.55 0.2817
GW 131 1 -1.9 0.0 4.55 -1.9 1.5 4.55 0.19099
GW 132 1 -1.9 1.5 4.55 -1.9 2.3 4.55 0.09549
GW 133 1 -1.9 2.3 4.55 -1.9 2.8 4.55 0.05968
GW 134 1 -1.9 2.8 4.55 -1.9 3.05 4.55 0.03979
GW 135 1 -1.9 3.05 4.55 -1.9 3.45 4.55 0.06366
GW 136 1 -1.9 3.45 4.55 -1.9 3.8 4.55 0.0557
GW 137 1 -2.2 3.8 4.55 -1.9 3.8 4.55 0.04775
GW 138 1 -2.2 4.855 4.55 -2.2 3.8 4.55 0.11652
GW 140 1 -2.2 5.625 4.25 -2.2 5.24 4.25 0.06127
GW 144 1 0.0 7.625 5.5 -0.85 6.625 5.5 0.07162
GW 145 1 0.0 8.725 5.5 -1.5625 8.725 5.5 0.07759
GW 146 1 -1.575 6.625 5.5 -0.85 6.625 5.5 0.07759
GW 147 1 -2.2 7.025 5.5 -1.575 6.625 5.5 0.05173
GW 147 1 -2.2 8.425 5.5 -1.25 7.625 5.5 0.05173
GW 148 2 -2.2 7.025 3.0 -2.2 7.025 5.5 0.0746
GW 148 2 -2.2 8.425 3.0 -2.2 8.425 5.5 0.0746
GW 148 1 -2.2 9.825 4.25 -2.2 8.425 4.25 0.0746
GW 148 1 -2.2 8.425 4.25 -2.2 7.025 4.25 0.0746
GW 148 1 -2.2 7.025 4.25 -2.2 5.625 4.25 0.0746
GW 149 1 -2.2 9.825 4.25 -1.8875 9.825 4.25 0.04974
GW 150 1 0.0 9.825 4.25 -1.8875 9.825 4.25 0.11937
GW 155 1 1.9 9.825 3.0 1.1 10.225 3.0 0.07162
GW 157 1 2.2 13.125 3.0 3.96 13.4425 3.0 0.24608
GW 158 1 2.2 11.675 3.0 3.96 12.0 3.0 0.17905
GW 159 2 3.96 16.77429 3.0 1.46667 16.59 3.0 0.17507
GW 159 2 3.96 18.66357 3.0 0.73333 18.295 3.0 0.17507
GW 159 3 3.96 20.55286 3.0 0.0 20.0 3.0 0.17507
GW 159 3 3.96 22.44214 3.0 0.0 21.555 3.0 0.17507
GW 159 3 3.96 24.33143 3.0 0.0 23.11 3.0 0.17507
GW 159 1 3.96 26.22072 3.0 1.98 25.61 3.0 0.17507
GW 159 1 1.98 25.61 3.0 2.64 23.92429 3.0 0.17507
GW 159 1 2.64 23.92429 3.0 2.64 22.14643 3.0 0.17507
GW 159 1 2.64 22.14643 3.0 2.64 20.36857 3.0 0.17507
GW 159 1 2.64 20.36857 3.0 2.34667 18.47929 3.0 0.17507
GW 159 1 2.34667 18.47929 3.0 2.71333 16.68214 3.0 0.17507
GW 159 1 2.71333 16.68214 3.0 2.2 14.885 3.0 0.17507
GW 159 1 0.99 24.36 3.0 1.32 23.51714 3.0 0.17507
GW 159 1 1.32 23.51714 3.0 1.32 21.85071 3.0 0.17507
GW 159 1 1.32 21.85071 3.0 1.32 20.18429 3.0 0.17507
GW 159 1 1.32 20.18429 3.0 0.73333 18.295 3.0 0.17507
GW 160 1 2.2 7.025 3.0 3.96 7.25 3.0 0.18382
GW 160 1 2.2 8.425 3.0 3.96 8.875 3.0 0.18382
GW 164 1 2.93 3.05 3.0 3.96 3.8 3.0 0.05968
GW 165 1 2.93 3.05 3.0 2.93 2.65 3.0 0.03979
GW 166 1 2.93 2.65 3.0 2.93 2.05 3.0 0.09549
GW 167 1 2.93 1.65 3.0 2.93 2.05 3.0 0.06366
GW 168 1 2.93 0.0 3.0 2.93 1.65 3.0 0.12295
GW 169 1 3.905 -1.5125 3.0 2.36 -1.5125 3.0 0.08196
GW 169 1 3.85 -3.025 3.0 2.82 -3.025 3.0 0.08196
GW 169 1 3.795 -4.5375 3.0 3.28 -4.5375 3.0 0.08196
GW 170 2 0.0 -4.5375 3.0 3.28 -4.5375 3.0 0.1878
GW 170 2 0.0 -3.025 3.0 2.82 -3.025 3.0 0.1878
GW 170 2 0.0 -1.5125 3.0 2.36 -1.5125 3.0 0.1878
GW 170 1 1.9 0.0 3.0 1.18 -1.5125 3.0 0.1878
GW 170 1 1.18 -1.5125 3.0 1.41 -3.025 3.0 0.1878
GW 170 1 1.41 -3.025 3.0 1.64 -4.5375 3.0 0.1878
GW 170 1 1.64 -4.5375 3.0 1.87 -6.05 3.0 0.1878
GW 171 2 1.87 -6.05 3.0 1.76 -9.35 3.0 0.24608
GW 171 1 3.63 -7.7 3.0 1.815 -7.7 3.0 0.24608
GW 171 1 1.815 -7.7 3.0 0.0 -7.7 3.0 0.24608
GW 172 2 0.0 -11.0 3.0 3.245 -11.0 3.0 0.24608
GW 172 1 1.76 -9.35 3.0 1.6225 -11.0 3.0 0.24608
GW 172 1 1.6225 -11.0 3.0 1.485 -12.65 3.0 0.24608
GW 173 2 0.0 -14.465 3.0 2.61 -14.465 3.0 0.17905
GW 173 1 1.125 -16.28 3.0 1.305 -14.465 3.0 0.17905
GW 173 1 1.305 -14.465 3.0 1.485 -12.65 3.0 0.17905
GW 174 1 0.0 -17.67333 3.0 1.5 -17.67333 3.0 0.11937
GW 174 1 0.0 -19.06667 3.0 0.75 -19.06667 3.0 0.11937
GW 174 1 1.5 -17.67333 3.0 1.125 -16.28 3.0 0.11937
GW 175 2 1.98 31.8 3.0 1.73 31.0 1.0 0.17257
GW 175 1 3.71 31.4 2.0 1.855 31.4 2.0 0.17257
GW 175 1 1.855 31.4 2.0 0.0 31.4 2.0 0.17257
GW 176 2 3.96 29.955 3.0 3.46 29.555 1.0 0.16711
GW 176 1 3.71 31.4 2.0 3.71 29.755 2.0 0.16711
GW 176 1 3.71 29.755 2.0 3.71 28.11 2.0 0.16711
GW 177 1 3.71 12.0 2.0 3.71 11.25 2.0 0.11937
GW 178 2 3.46 6.64125 1.0 3.96 7.25 3.0 0.16563
GW 178 2 3.46 8.4275 1.0 3.96 8.875 3.0 0.16563
GW 178 2 3.46 10.21375 1.0 3.96 10.5 3.0 0.16563
GW 178 1 3.71 11.25 2.0 3.71 10.35687 2.0 0.16563
GW 178 1 3.71 10.35687 2.0 3.71 8.65125 2.0 0.16563
GW 178 1 3.71 8.65125 2.0 3.71 6.94563 2.0 0.16563
GW 178 1 3.71 6.94563 2.0 3.71 5.24 2.0 0.16563
GW 179 1 3.71 5.24 2.0 3.71 4.3275 2.0 0.14523
GW 180 1 3.71 3.05 2.0 3.71 4.3275 2.0 0.06565
GW 181 1 3.71 3.05 2.0 3.71 2.775 2.0 0.04377
GW 182 1 3.71 2.775 2.0 3.71 1.4 2.0 0.21884
GW 183 1 3.71 0.0 2.0 3.71 1.4 2.0 0.15915
GW 184 2 3.905 -1.5125 3.0 3.405 -1.5125 1.0 0.16405
GW 184 2 3.85 -3.025 3.0 3.35 -3.025 1.0 0.16405
GW 184 2 3.795 -4.5375 3.0 3.295 -4.5375 1.0 0.16405
GW 184 1 3.49 -6.05 2.0 3.545 -4.5375 2.0 0.16405
GW 184 1 3.545 -4.5375 2.0 3.6 -3.025 2.0 0.16405