CE TANK
GW 1,2,-8.585,-2.553,-1.293,-8.585,0.,-1.293,0.001
GW 2,4,-8.585,-2.553,-1.293,-8.142,-2.553,-1.293,0.001
GW 3,1,-8.585,-2.553,-1.293,-7.275,-2.553,.042,0.001
GW 4,1,-8.142,-4.246,-2.528,-8.142,-4.246,-1.293,0.001
GW 5,1,-8.142,-4.246,-2.528,-8.142,-2.553,-2.528,0.001
GW 6,1,-7.275,-4.246,-3.195,-8.142,-4.246,-2.528,0.001
GW 7,1,-8.142,-4.246,-1.293,-8.142,-2.553,-1.293,0.001
GW 8,1,-8.142,-4.246,-1.293,-7.275,-4.246,-.275,0.001
GW 9,1,-8.142,-2.553,-2.528,-8.142,-2.553,-1.293,0.001
GW 10,1,-7.275,-2.553,-3.195,-8.142,-2.553,-2.528,0.001
GW 11,2,-8.142,-2.553,-1.293,-8.142,0.,-1.293,0.001
GW 12,1,-8.142,-2.553,-1.293,-7.275,-2.553,-.275,0.001
GW 13,1,-7.275,-4.246,-3.195,-7.275,-2.553,-3.195,0.001
GW 14,1,-7.275,-4.246,-3.195,5.139,-4.246,-3.195,0.001
GW 15,1,-7.275,-4.246,-.275,-7.275,-2.553,-.275,0.001
GW 16,1,-7.275,-4.246,-.275,5.139,-4.246,-.275,0.001
GW 17,1,-7.275,-2.553,-3.195,5.139,-2.553,-3.195,0.001
GW 18,2,-7.275,-2.553,-.275,-7.275,0.,-.275,0.001
GW 19,1,-7.275,-2.553,-.275,5.139,-2.553,-.275,0.001
GW 20,5,-7.275,-2.553,.042,-7.275,2.553,.042,0.001
GW 21,7,-7.275,-2.553,.042,-.008,-2.553,.659,0.001
GW 22,2,-8.585,0.,-1.293,-8.585,2.553,-1.293,0.001
GW 23,4,-8.585,2.553,-1.293,-8.142,2.553,-1.293,0.001
GW 24,1,-8.585,2.553,-1.293,-7.275,2.553,.042,0.001
GW 25,1,-8.142,4.246,-2.528,-8.142,4.246,-1.293,0.001
GW 26,1,-8.142,2.553,-2.528,-8.142,4.246,-2.528,0.001
GW 27,1,-7.275,4.246,-3.195,-8.142,4.246,-2.528,0.001
GW 28,1,-8.142,2.553,-1.293,-8.142,4.246,-1.293,0.001
GW 29,1,-8.142,4.246,-1.293,-7.275,4.246,-.275,0.001
GW 30,1,-8.142,2.553,-2.528,-8.142,2.553,-1.293,0.001
GW 31,1,-7.275,2.553,-3.195,-8.142,2.553,-2.528,0.001
GW 32,2,-8.142,0.,-1.293,-8.142,2.553,-1.293,0.001
GW 33,1,-8.142,2.553,-1.293,-7.275,2.553,-.275,0.001
GW 34,1,-7.275,2.553,-3.195,-7.275,4.246,-3.195,0.001
GW 35,1,-7.275,4.246,-3.195,5.139,4.246,-3.195,0.001
GW 36,1,-7.275,2.553,-.275,-7.275,4.246,-.275,0.001
GW 37,1,-7.275,4.246,-.275,5.139,4.246,-.275,0.001
GW 38,1,-7.275,2.553,-3.195,5.139,2.553,-3.195,0.001
GW 39,2,-7.275,0.,-.275,-7.275,2.553,-.275,0.001
GW 40,1,-7.275,2.553,-.275,5.139,2.553,-.275,0.001
GW 41,7,-7.275,2.553,.042,-.008,2.553,.659,0.001
GW 42,4,-.008,-2.553,.659,-.008,-2.119,.659,0.001
GW 43,3,-.008,-2.553,.659,3.871,-2.553,.659,0.001
GW 44,4,3.871,-2.553,.659,3.871,-2.119,.659,0.001
GW 45,1,5.139,-2.553,.25,3.871,-2.553,.659,0.001
GW 46,1,5.139,-4.246,-3.195,5.139,-2.553,-3.195,0.001
GW 47,1,5.139,-4.246,-3.195,6.032,-4.246,-2.244,0.001
GW 48,1,5.139,-4.246,-.275,5.139,-2.553,-.275,0.001
GW 49,1,6.032,-4.246,-.984,5.139,-4.246,-.275,0.001
GW 50,1,5.139,-2.553,-3.195,6.032,-2.553,-2.244,0.001
GW 51,1,5.139,-2.553,-.275,5.139,2.553,-.275,0.001
GW 52,1,6.032,-2.553,-.984,5.139,-2.553,-.275,0.001
GW 53,1,5.139,-2.553,.25,5.139,2.553,.25,0.001
GW 54,1,6.424,-2.553,-.984,5.139,-2.553,.25,0.001
GW 55,1,6.032,-4.246,-2.244,6.032,-4.246,-.984,0.001
GW 56,1,6.032,-4.246,-2.244,6.032,-2.553,-2.244,0.001
GW 57,1,6.032,-4.246,-.984,6.032,-2.553,-.984,0.001
GW 58,1,6.032,-2.553,-2.244,6.032,-2.553,-.984,0.001
GW 59,1,6.032,-2.553,-.984,6.032,2.553,-.984,0.001
GW 60,4,6.032,-2.553,-.984,6.424,-2.553,-.984,0.001
GW 61,1,6.424,-2.553,-.984,6.424,2.553,-.984,0.001
GW 62,4,-.008,2.119,.659,-.008,2.553,.659,0.001
GW 63,3,-.008,2.553,.659,3.871,2.553,.659,0.001
GW 64,4,3.871,2.119,.659,3.871,2.553,.659,0.001
GW 65,1,5.139,2.553,.25,3.871,2.553,.659,0.001
GW 66,1,5.139,2.553,-3.195,5.139,4.246,-3.195,0.001
GW 67,1,5.139,4.246,-3.195,6.032,4.246,-2.244,0.001
GW 68,1,5.139,2.553,-.275,5.139,4.246,-.275,0.001
GW 69,1,6.032,4.246,-.984,5.139,4.246,-.275,0.001
GW 70,1,5.139,2.553,-3.195,6.032,2.553,-2.244,0.001
GW 71,1,6.032,2.553,-.984,5.139,2.553,-.275,0.001
GW 72,1,6.424,2.553,-.984,5.139,2.553,.25,0.001
GW 73,1,6.032,4.246,-2.244,6.032,4.246,-.984,0.001
GW 74,1,6.032,2.553,-2.244,6.032,4.246,-2.244,0.001
GW 75,1,6.032,2.553,-.984,6.032,4.246,-.984,0.001
GW 76,1,6.032,2.553,-2.244,6.032,2.553,-.984,0.001
GW 77,4,6.032,2.553,-.984,6.424,2.553,-.984,0.001
GW 78,1,-3.254,-1.669,1.468,-3.254,-1.669,2.695,0.001
GW 79,3,-3.254,-1.669,1.468,-3.254,1.685,1.468,0.001
GW 80,3,-.008,-2.119,.659,-3.254,-1.669,1.468,0.001
GW 81,3,-3.254,-1.669,2.695,-3.254,1.685,2.695,0.001
GW 82,3,-3.254,-1.669,2.695,-.008,-2.119,3.195,0.001
GW 83,2,-.008,-2.119,.659,-.008,-2.119,3.195,0.001
GW 84,4,-.008,-2.119,.659,-.008,2.119,.659,0.001
GW 85,4,-.008,-2.119,3.195,-.008,2.119,3.195,0.001
GW 86,3,-.008,-2.119,.659,3.871,-2.119,.659,0.001
GW 87,3,-.008,-2.119,3.195,3.871,-2.119,3.195,0.001
GW 88,2,3.871,-2.119,.659,3.871,-2.119,3.195,0.001
GW 89,4,3.871,-2.119,3.195,3.871,2.119,3.195,0.001
GW 91,1,3.871,-2.119,.659,4.714,-1.26,1.468,0.001
GW 92,1,4.714,-1.26,2.695,3.871,-2.119,3.195,0.001
GW 93,1,4.714,-1.26,1.468,4.714,-1.26,2.695,0.001
GW 94,2,4.714,-1.26,1.468,4.714,1.276,1.468,0.001
GW 95,1,4.714,-1.26,2.695,4.714,0.,2.695,0.001
GW 96,9,4.714,-.417,1.844,4.714,-.417,2.695,0.001
GW 97,4,4.714,-.417,1.844,4.714,0.,1.844,0.001
GW 98,4,4.714,-.417,2.695,4.714,0.,2.695,0.001
GW 99,9,8.576,-.417,1.844,8.576,-.417,2.695,0.001
GW 100,4,8.576,-.417,1.844,8.576,0.,1.844,0.001
GW 101,4,8.576,-.417,2.695,8.576,0.,2.695,0.001
GW 102,1,-3.254,1.685,1.468,-3.254,1.685,2.695,0.001
GW 103,3,-.008,2.119,.659,-3.254,1.685,1.468,0.001
GW 104,3,-3.254,1.685,2.695,-.008,2.119,3.195,0.001
GW 105,2,-.008,2.119,.659,-.008,2.119,3.195,0.001
GW 106,3,-.008,2.119,.659,3.871,2.119,.659,0.001
GW 107,3,-.008,2.119,3.195,3.871,2.119,3.195,0.001
GW 108,2,3.871,2.119,.659,3.871,2.119,3.195,0.001
GW 109,1,3.871,2.119,.659,4.714,1.276,1.468,0.001
GW 110,1,4.714,1.276,2.695,3.871,2.119,3.195,0.001
GW 111,1,4.714,1.276,1.468,4.714,1.276,2.695,0.001
GW 112,1,4.714,0.,2.695,4.714,1.276,2.695,0.001
GW 113,9,4.714,.434,1.844,4.714,.434,2.695,0.001
GW 114,4,4.714,0.,1.844,4.714,.434,1.844,0.001
GW 115,4,4.714,0.,2.695,4.714,.434,2.695,0.001
GW 116,9,8.576,.434,1.844,8.576,.434,2.695,0.001
GW 117,4,8.576,0.,1.844,8.576,.434,1.844,0.001
GW 118,4,8.576,0.,2.695,8.576,.434,2.695,0.001
GW 119,3,4.714,-.417,1.844,8.576,-.417,1.844,0.001
GW 120,3,4.714,-.417,2.695,8.576,-.417,2.695,0.001
GW 121,3,4.714,.434,2.695,8.576,.434,2.695,0.001
GW 122,3,4.714,.434,1.844,8.576,.434,1.844,0.001
GE 0 
GN -1
EN