CM In this example you can see how I mis-used 4nec2 to see how an old-style
CM garden-house I planned to build in my garden would look like.  
CM So, please don't let Nec2 generate output data for this model, because
CM it will give you a lot of errors and warnings.
CM
CM Use 'Geometry view' to see the results.
CE
GW	9	3	-2.4	1.9	0	-2.4	1.9	1.3	1.e-3
GW	10	3	2.4	1.9	0	2.4	1.9	1.3	1.e-3
GW	11	3	2.4	-1.9	0	2.4	-1.9	1.3	0.03
GW	12	3	-2.4	-1.9	0	-2.4	-1.9	1.3	0.03
GW	6	3	1.5	-1.9	0	1.5	-1.9	2	0.05
GW	7	3	-1.5	-1.9	0	-1.5	-1.9	2	0.05
GW	8	5	-1.65	-2.1	1.95	1.65	-2.1	1.95	1.e-3
GW	13	3	-0.7	-1	2.7	0.7	-1	2.7	0.03
GW	14	7	-2.6	2.1	1.2	2.6	2.1	1.2	1.e-3
GW	15	7	2.6	2.1	1.2	2.6	-2.1	1.2	1.e-3
GW	16	7	-2.6	2.1	1.2	-2.6	-2.1	1.2	1.e-3
GW	17	3	2.6	-2.1	1.2	1.65	-2.1	1.95	1.e-3
GW	18	3	-2.6	-2.1	1.2	-1.65	-2.1	1.95	1.e-3
GW	19	3	1.65	-2.1	1.95	0.7	-1	2.7	0.03
GW	20	3	-1.65	-2.1	1.95	-0.7	-1	2.7	0.03
GW	21	7	0.7	-1	2.7	2.6	2.1	1.2	0.03
GW	22	7	-0.7	-1	2.7	-2.6	2.1	1.2	0.03
GW	23	3	1.5	0.35	2	1.5	0.35	0	0.05
GW	24	3	-1.5	0.35	2	-1.5	0.35	0	0.05
GW	25	5	1.5	-1.95	2	1.5	0.35	2	0.03
GW	26	5	1.5	0.35	2	-1.5	0.35	2	0.03
GW	27	5	-1.5	0.35	2	-1.5	-1.95	2	0.03
GW	28	5	2.4	1.8	1.3	2.4	-1.9	1.3	0.03
GW	29	5	-2.4	1.8	1.3	-2.4	-1.9	1.3	0.03
GW	30	7	2.4	1.8	1.3	-2.4	1.8	1.3	0.03
GW	31	5	-1.5	-1.9	2	1.5	-1.9	2	0.03
GW	32	1	-1.5	-1.9	1.5	-1	-1.9	2	0.03
GW	33	1	1.5	-1.9	1.5	1	-1.9	2	0.03
GW	34	1	-1.5	0.35	1.5	-1	0.35	2	0.03
GW	35	1	1.5	0.35	1.5	1	0.35	2	0.03
GW	36	1	1.5	0.35	1.5	1.5	-0.05	2	0.03
GW	37	1	1.5	-1.9	1.5	1.5	-1.5	2	0.03
GW	38	1	-1.5	-1.9	1.5	-1.5	-1.5	2	0.03
GW	39	1	-1.5	0.35	1.5	-1.5	-0.05	2	0.03
GW	45	3	1.5	-1.9	2	2.4	-1.9	1.3	0.03
GW	46	3	-1.5	-1.9	2	-2.4	-1.9	1.3	0.03
GW	47	3	-2.4	-1.9	0.3	-1.5	-1.9	0.3	0.03
GW	48	3	1.5	-1.9	0.3	2.4	-1.9	0.3	0.03
GW	49	10	-2.4	-1.9	0.3	-2.4	1.9	0.3	0.03
GW	50	10	2.4	-1.9	0.3	2.4	1.9	0.3	0.03
GW	51	7	2.4	1.9	0.3	-2.4	1.9	0.3	0.03
GW	52	3	2.4	1.8	0.3	2.4	1.8	1.3	0.03
GW	53	3	-2.4	1.8	0.3	-2.4	1.8	1.3	0.03
SP	0	3	1.5	-1.9	0	2.4	-1.9	
SC	0	-1	2.4	-1.9	1.3	1.5	-1.9	2
SP	0	3	2.4	-1.9	0	2.4	1.9	
SC	0	-1	2.4	1.9	1.3	2.4	-1.9	1.3
SP	0	3	2.4	1.9	0	-2.4	1.9	
SC	0	-1	-2.4	1.9	1.3	2.4	1.9	1.3
SP	0	3	-2.4	1.9	0	-2.4	-1.9	
SC	0	-1	-2.4	-1.9	1.2	-2.4	1.9	1.3
SP	0	3	-2.4	-1.9	0	-1.5	-1.9	
SC	0	-1	-1.5	-1.9	2	-2.4	-1.9	1.3
SP	0	3	-1.65	-2.1	1.95	1.65	-2.1	1.95
SC	0	-1	0.7	-1	2.7	-0.7	-1	2.7
SP	0	2	1.65	-2.1	1.95	1.65	0.65	1.95
SC	0	-1	0.7	-1	2.7			
SP	0	3	1.65	0.65	1.95	-1.65	0.65	1.95
SC	0	-1	-0.7	-1	2.7	0.7	-1	2.7
SP	0	2	-1.65	0.65	1.95	-1.65	-2.1	1.95
SC	0	-1	-0.7	-1	2.7			
SP	0	3	2.6	-2.1	1.2	2.6	2.1	1.2
SC	0	-1	1.65	0.65	1.95	1.65	-2.1	1.95
SP	0	3	2.6	2.1	1.2	-2.6	2.1	1.2
SC	0	-1	-1.65	0.65	1.95	1.65	0.65	1.95
SP	0	3	-2.6	2.1	1.2	-2.6	-2.1	1.2
SC	0	-1	-1.65	-2.1	1.95	-1.65	0.65	1.95
GE	1
GN	0	0	0	0	4	0.003
EK
FR	0	0	0	0	10	0
EN
