CE
sy len=7.76
GW 1 11 0 -len 40 0 len 40 0.1875
GW 2 11 0 -len 8.95 0 len 8.95 0.1875
GW 3 11 0 -len 0 0 len 0 0.1875
GW 4 20 0 -len 40 0 -len 8.95 0.1875
GW 5 6 0 -len 8.95 0 -len 0 0.1875
GW 6 20 0 len 40 0 len 8.95 0.1875
GW 7 6 0 len 8.95 0 len 0 0.1875
GS 0 0 .02540
GE 0
EX 0 1 6 0 1 0
LD 5 0 0 0 5.8001E7
FR 0 41 0 0 144 0.1
EN
