CM
CM           2M Quarter-wave Ground-plane
CM		 (2m/440 compromise)
CM
CE
GW  1   16    0.      0.         0.0       0.        0.0      19.25     .00808
GW  2    8    0.      0.         0.0      13.594     0.0     -13.600    .00808
GW  3    8    0.      0.         0.0       0.0     -13.594   -13.600    .00808
GW  4    8    0.      0.         0.0     -13.594     0.0     -13.600    .00808
GW  5    8    0.      0.         0.0       0.0      13.594   -13.600    .00808
GS  0    0  0.0258
GE
EX  5    0    1    0  1.
FR  0    5    0    0  144.      1.0
'FR  0    1    0    0  445.      1.0
EN