CM Curved dipole n=6  Max Gain
CM free space
CM 144.300 MHz
CM 12 wire, millimeters
CM split source
CE
GW 1   6   655.22,1335.88 ,0    579.24,1087.36 ,0    10
GW 2   6   579.24,1087.36 ,0    570.17,827.63,0      10
GW 3   6   570.17,827.63,0      516.14,573.43 ,0     10
GW 4   6   516.14,573.43 ,0     349.09,374.35,0      10
GW 5   6   349.09,374.35,0      141.54,217.95,0      10
GW 6   6   141.54,217.95,0      0,0,0                10
GW 7   6   0,0,0                141.54,-217.95,0     10
GW 8   6   141.54,-217.95,0     349.09,-374.35,0     10
GW 9   6   349.09,-374.35,0     516.14,-573.43 ,0    10
GW 10  6   516.14,-573.43 ,0    570.17,-827.63,0     10
GW 11  6   570.17,-827.63,0     579.24,-1087.36 ,0   10
GW 12  6   579.24,-1087.36 ,0   655.22,-1335.88 ,0   10
GS 0  0  .001
GE 0
EK
FR 0,0,0,0, 144.300
EX 0, 7, 1, 0, 1., 0.,
EX 0, 6, 6, 0, 1., 0.,
EN
