CM Double Loop
CE

SY len=0.1964
GW 1 6 0 -len -len/2 0 0    -len/2 5.e-3
GW 2 6 0 len  -len/2 0 len  len/2  5.e-3
GW 3 6 0 len  len/2  0 0    len/2  5.e-3
GW 4 6 0 -len len/2  0 -len -len/2 5.e-3
GW 5 6 0 0    len/2  0 -len len/2  5.e-3
GW 6 6 0 0    -len/2 0 len  -len/2 5.e-3
GW 7 7 0 0    len/2  0 0    -len/2 5.e-3
GE 0
EK
LD 5 0 0 0 57471264 0
GN -1
EX 0 7 4 0 1 0
FR 0 1 0 0 435 0
EN
