CM   4 dipole stack, rotatable
CM   Design PAW
CM   10-11-1998
CM   c:\4nec2\generator.nec
CE
GW   1   55   0     0   1500   0     0   11400   1
GW   2   11   900   0   2280   900   0   3720   1
GW   3   11   900   0   4380   900   0   5820   1
GW   4   11   900   0   6480   900   0   7920   1
GW   5   11   900   0   8580   900   0   10020   1
GS   0   0   0.001   
GE
GN   -1   0   0   0   0   0   0   0   0   0
EX   0   2   6   0   1   0
EX   0   3   6   0   1   0
EX   0   4   6   0   1   0
EX   0   5   5   0   1   0
FR   0   1   0   0   100   0
PQ   -1   0   0   0   
PT   -1   0   0   0   
RP 0 73 73 1001 -90 0 5 5
EN

