CM Example T-antenna on a box
CE 
GW 1 5 -0.2 0.2 0.1 -0.1 0.2 0.1 0.001
GW 2 5 -0.1 0.2 0.1 0.0 0.2 0.1 0.001
GW 3 5 0.0 0.2 0.1 0.1 0.2 0.1 0.001
GW 4 5 0.1 0.2 0.1 0.2 0.2 0.1 0.001
GW 5 5 -0.1 0.2 0.2 -0.1 0.2 0.1 0.001
GW 6 5 -0.1 0.2 0.1 -0.1 0.2 0.0 0.001
GW 7 5 -0.1 0.2 0.0 -0.1 0.2 -0.1 0.001
GW 8 5 -0.1 0.2 -0.1 -0.1 0.2 -0.2 0.001
GW 9 5 -0.2 0.2 0.0 -0.1 0.2 0.0 0.001
GW 10 5 -0.1 0.2 0.0 0.0 0.2 0.0 0.001
GW 11 5 0.0 0.2 0.0 0.1 0.2 0.0 0.001
GW 12 5 0.1 0.2 0.0 0.2 0.2 0.0 0.001
GW 13 5 0.0 0.2 0.2 0.0 0.2 0.1 0.001
GW 14 5 0.0 0.2 0.1 0.0 0.2 0.0 0.001
GW 15 5 0.0 0.2 0.0 0.0 0.2 -0.1 0.001
GW 16 5 0.0 0.2 -0.1 0.0 0.2 -0.2 0.001
GW 17 5 -0.2 0.2 -0.1 -0.1 0.2 -0.1 0.001
GW 18 5 -0.1 0.2 -0.1 0.0 0.2 -0.1 0.001
GW 19 5 0.0 0.2 -0.1 0.1 0.2 -0.1 0.001
GW 20 5 0.1 0.2 -0.1 0.2 0.2 -0.1 0.001
GW 21 5 0.1 0.2 0.2 0.1 0.2 0.1 0.001
GW 22 5 0.1 0.2 0.1 0.1 0.2 0.0 0.001
GW 23 5 0.1 0.2 0.0 0.1 0.2 -0.1 0.001
GW 24 5 0.1 0.2 -0.1 0.1 0.2 -0.2 0.001
GW 25 5 -0.2 -0.2 0.1 -0.1 -0.2 0.1 0.001
GW 26 5 -0.1 -0.2 0.1 0.0 -0.2 0.1 0.001
GW 27 5 0.0 -0.2 0.1 0.1 -0.2 0.1 0.001
GW 28 5 0.1 -0.2 0.1 0.2 -0.2 0.1 0.001
GW 29 5 -0.1 -0.2 0.2 -0.1 -0.2 0.1 0.001
GW 30 5 -0.1 -0.2 0.1 -0.1 -0.2 0.0 0.001
GW 31 5 -0.1 -0.2 0.0 -0.1 -0.2 -0.1 0.001
GW 32 5 -0.1 -0.2 -0.1 -0.1 -0.2 -0.2 0.001
GW 33 5 -0.2 -0.2 0.0 -0.1 -0.2 0.0 0.001
GW 34 5 -0.1 -0.2 0.0 0.0 -0.2 0.0 0.001
GW 35 5 0.0 -0.2 0.0 0.1 -0.2 0.0 0.001
GW 36 5 0.1 -0.2 0.0 0.2 -0.2 0.0 0.001
GW 37 5 0.0 -0.2 0.2 0.0 -0.2 0.1 0.001
GW 38 5 0.0 -0.2 0.1 0.0 -0.2 0.0 0.001
GW 39 5 0.0 -0.2 0.0 0.0 -0.2 -0.1 0.001
GW 40 5 0.0 -0.2 -0.1 0.0 -0.2 -0.2 0.001
GW 41 5 -0.2 -0.2 -0.1 -0.1 -0.2 -0.1 0.001
GW 42 5 -0.1 -0.2 -0.1 0.0 -0.2 -0.1 0.001
GW 43 5 0.0 -0.2 -0.1 0.1 -0.2 -0.1 0.001
GW 44 5 0.1 -0.2 -0.1 0.2 -0.2 -0.1 0.001
GW 45 5 0.1 -0.2 0.2 0.1 -0.2 0.1 0.001
GW 46 5 0.1 -0.2 0.1 0.1 -0.2 0.0 0.001
GW 47 5 0.1 -0.2 0.0 0.1 -0.2 -0.1 0.001
GW 48 5 0.1 -0.2 -0.1 0.1 -0.2 -0.2 0.001
GW 49 5 0.2 -0.2 0.2 0.2 -0.2 0.1 0.001
GW 50 5 0.2 -0.2 0.1 0.2 -0.2 0.0 0.001
GW 51 5 0.2 -0.2 0.0 0.2 -0.2 -0.1 0.001
GW 52 5 0.2 -0.2 -0.1 0.2 -0.2 -0.2 0.001
GW 53 5 0.2 -0.2 0.1 0.2 -0.1 0.1 0.001
GW 54 5 0.2 -0.1 0.1 0.2 0.0 0.1 0.001
GW 55 5 0.2 0.0 0.1 0.2 0.1 0.1 0.001
GW 56 5 0.2 0.1 0.1 0.2 0.2 0.1 0.001
GW 57 5 0.2 -0.1 0.2 0.2 -0.1 0.1 0.001
GW 58 5 0.2 -0.1 0.1 0.2 -0.1 0.0 0.001
GW 59 5 0.2 -0.1 0.0 0.2 -0.1 -0.1 0.001
GW 60 5 0.2 -0.1 -0.1 0.2 -0.1 -0.2 0.001
GW 61 5 0.2 -0.2 0.0 0.2 -0.1 0.0 0.001
GW 62 5 0.2 -0.1 0.0 0.2 0.0 0.0 0.001
GW 63 5 0.2 0.0 0.0 0.2 0.1 0.0 0.001
GW 64 5 0.2 0.1 0.0 0.2 0.2 0.0 0.001
GW 65 5 0.2 0.0 0.2 0.2 0.0 0.1 0.001
GW 66 5 0.2 0.0 0.1 0.2 0.0 0.0 0.001
GW 67 5 0.2 0.0 0.0 0.2 0.0 -0.1 0.001
GW 68 5 0.2 0.0 -0.1 0.2 0.0 -0.2 0.001
GW 69 5 0.2 -0.2 -0.1 0.2 -0.1 -0.1 0.001
GW 70 5 0.2 -0.1 -0.1 0.2 0.0 -0.1 0.001
GW 71 5 0.2 0.0 -0.1 0.2 0.1 -0.1 0.001
GW 72 5 0.2 0.1 -0.1 0.2 0.2 -0.1 0.001
GW 73 5 0.2 0.1 0.2 0.2 0.1 0.1 0.001
GW 74 5 0.2 0.1 0.1 0.2 0.1 0.0 0.001
GW 75 5 0.2 0.1 0.0 0.2 0.1 -0.1 0.001
GW 76 5 0.2 0.1 -0.1 0.2 0.1 -0.2 0.001
GW 77 5 0.2 0.2 0.2 0.2 0.2 0.1 0.001
GW 78 5 0.2 0.2 0.1 0.2 0.2 0.0 0.001
GW 79 5 0.2 0.2 0.0 0.2 0.2 -0.1 0.001
GW 80 5 0.2 0.2 -0.1 0.2 0.2 -0.2 0.001
GW 81 5 -0.2 -0.2 0.2 -0.2 -0.2 0.1 0.001
GW 82 5 -0.2 -0.2 0.1 -0.2 -0.2 0.0 0.001
GW 83 5 -0.2 -0.2 0.0 -0.2 -0.2 -0.1 0.001
GW 84 5 -0.2 -0.2 -0.1 -0.2 -0.2 -0.2 0.001
GW 85 5 -0.2 -0.2 0.1 -0.2 -0.1 0.1 0.001
GW 86 5 -0.2 -0.1 0.1 -0.2 0.0 0.1 0.001
GW 87 5 -0.2 0.0 0.1 -0.2 0.1 0.1 0.001
GW 88 5 -0.2 0.1 0.1 -0.2 0.2 0.1 0.001
GW 89 5 -0.2 -0.1 0.2 -0.2 -0.1 0.1 0.001
GW 90 5 -0.2 -0.1 0.1 -0.2 -0.1 0.0 0.001
GW 91 5 -0.2 -0.1 0.0 -0.2 -0.1 -0.1 0.001
GW 92 5 -0.2 -0.1 -0.1 -0.2 -0.1 -0.2 0.001
GW 93 5 -0.2 -0.2 0.0 -0.2 -0.1 0.0 0.001
GW 94 5 -0.2 -0.1 0.0 -0.2 0.0 0.0 0.001
GW 95 5 -0.2 0.0 0.0 -0.2 0.1 0.0 0.001
GW 96 5 -0.2 0.1 0.0 -0.2 0.2 0.0 0.001
GW 97 5 -0.2 0.0 0.2 -0.2 0.0 0.1 0.001
GW 98 5 -0.2 0.0 0.1 -0.2 0.0 0.0 0.001
GW 99 5 -0.2 0.0 0.0 -0.2 0.0 -0.1 0.001
GW 100 5 -0.2 0.0 -0.1 -0.2 0.0 -0.2 0.001
GW 101 5 -0.2 -0.2 -0.1 -0.2 -0.1 -0.1 0.001
GW 102 5 -0.2 -0.1 -0.1 -0.2 0.0 -0.1 0.001
GW 103 5 -0.2 0.0 -0.1 -0.2 0.1 -0.1 0.001
GW 104 5 -0.2 0.1 -0.1 -0.2 0.2 -0.1 0.001
GW 105 5 -0.2 0.1 0.2 -0.2 0.1 0.1 0.001
GW 106 5 -0.2 0.1 0.1 -0.2 0.1 0.0 0.001
GW 107 5 -0.2 0.1 0.0 -0.2 0.1 -0.1 0.001
GW 108 5 -0.2 0.1 -0.1 -0.2 0.1 -0.2 0.001
GW 109 5 -0.2 0.2 0.2 -0.2 0.2 0.1 0.001
GW 110 5 -0.2 0.2 0.1 -0.2 0.2 0.0 0.001
GW 111 5 -0.2 0.2 0.0 -0.2 0.2 -0.1 0.001
GW 112 5 -0.2 0.2 -0.1 -0.2 0.2 -0.2 0.001
GW 113 5 -0.2 0.2 0.2 -0.1 0.2 0.2 0.001
GW 114 5 -0.1 0.2 0.2 0.0 0.2 0.2 0.001
GW 115 5 0.0 0.2 0.2 0.1 0.2 0.2 0.001
GW 116 5 0.1 0.2 0.2 0.2 0.2 0.2 0.001
GW 117 5 -0.2 0.2 0.2 -0.2 0.1 0.2 0.001
GW 118 5 -0.2 0.1 0.2 -0.2 0.0 0.2 0.001
GW 119 5 -0.2 0.0 0.2 -0.2 -0.1 0.2 0.001
GW 120 5 -0.2 -0.1 0.2 -0.2 -0.2 0.2 0.001
GW 121 5 -0.2 0.1 0.2 -0.1 0.1 0.2 0.001
GW 122 5 -0.1 0.1 0.2 0.0 0.1 0.2 0.001
GW 123 5 0.0 0.1 0.2 0.1 0.1 0.2 0.001
GW 124 5 0.1 0.1 0.2 0.2 0.1 0.2 0.001
GW 125 5 -0.1 0.2 0.2 -0.1 0.1 0.2 0.001
GW 126 5 -0.1 0.1 0.2 -0.1 0.0 0.2 0.001
GW 127 5 -0.1 0.0 0.2 -0.1 -0.1 0.2 0.001
GW 128 5 -0.1 -0.1 0.2 -0.1 -0.2 0.2 0.001
GW 129 5 -0.2 0.0 0.2 -0.1 0.0 0.2 0.001
GW 130 5 -0.1 0.0 0.2 0.0 0.0 0.2 0.001
GW 131 5 0.0 0.0 0.2 0.1 0.0 0.2 0.001
GW 132 5 0.1 0.0 0.2 0.2 0.0 0.2 0.001
GW 133 5 0.0 0.2 0.2 0.0 0.1 0.2 0.001
GW 134 5 0.0 0.1 0.2 0.0 0.0 0.2 0.001
GW 135 5 0.0 0.0 0.2 0.0 -0.1 0.2 0.001
GW 136 5 0.0 -0.1 0.2 0.0 -0.2 0.2 0.001
GW 137 5 -0.2 -0.1 0.2 -0.1 -0.1 0.2 0.001
GW 138 5 -0.1 -0.1 0.2 0.0 -0.1 0.2 0.001
GW 139 5 0.0 -0.1 0.2 0.1 -0.1 0.2 0.001
GW 140 5 0.1 -0.1 0.2 0.2 -0.1 0.2 0.001
GW 141 5 0.1 0.2 0.2 0.1 0.1 0.2 0.001
GW 142 5 0.1 0.1 0.2 0.1 0.0 0.2 0.001
GW 143 5 0.1 0.0 0.2 0.1 -0.1 0.2 0.001
GW 144 5 0.1 -0.1 0.2 0.1 -0.2 0.2 0.001
GW 145 5 -0.2 -0.2 0.2 -0.1 -0.2 0.2 0.001
GW 146 5 -0.1 -0.2 0.2 0.0 -0.2 0.2 0.001
GW 147 5 0.0 -0.2 0.2 0.1 -0.2 0.2 0.001
GW 148 5 0.1 -0.2 0.2 0.2 -0.2 0.2 0.001
GW 149 5 0.2 0.2 0.2 0.2 0.1 0.2 0.001
GW 150 5 0.2 0.1 0.2 0.2 0.0 0.2 0.001
GW 151 5 0.2 0.0 0.2 0.2 -0.1 0.2 0.001
GW 152 5 0.2 -0.1 0.2 0.2 -0.2 0.2 0.001
GW 153 5 -0.2 0.2 -0.2 -0.1 0.2 -0.2 0.001
GW 154 5 -0.1 0.2 -0.2 0.0 0.2 -0.2 0.001
GW 155 5 0.0 0.2 -0.2 0.1 0.2 -0.2 0.001
GW 156 5 0.1 0.2 -0.2 0.2 0.2 -0.2 0.001
GW 157 5 -0.2 0.2 -0.2 -0.2 0.1 -0.2 0.001
GW 158 5 -0.2 0.1 -0.2 -0.2 0.0 -0.2 0.001
GW 159 5 -0.2 0.0 -0.2 -0.2 -0.1 -0.2 0.001
GW 160 5 -0.2 -0.1 -0.2 -0.2 -0.2 -0.2 0.001
GW 161 5 -0.2 0.1 -0.2 -0.1 0.1 -0.2 0.001
GW 162 5 -0.1 0.1 -0.2 0.0 0.1 -0.2 0.001
GW 163 5 0.0 0.1 -0.2 0.1 0.1 -0.2 0.001
GW 164 5 0.1 0.1 -0.2 0.2 0.1 -0.2 0.001
GW 165 5 -0.1 0.2 -0.2 -0.1 0.1 -0.2 0.001
GW 166 5 -0.1 0.1 -0.2 -0.1 0.0 -0.2 0.001
GW 167 5 -0.1 0.0 -0.2 -0.1 -0.1 -0.2 0.001
GW 168 5 -0.1 -0.1 -0.2 -0.1 -0.2 -0.2 0.001
GW 169 5 -0.2 0.0 -0.2 -0.1 0.0 -0.2 0.001
GW 170 5 -0.1 0.0 -0.2 0.0 0.0 -0.2 0.001
GW 171 5 0.0 0.0 -0.2 0.1 0.0 -0.2 0.001
GW 172 5 0.1 0.0 -0.2 0.2 0.0 -0.2 0.001
GW 173 5 0.0 0.2 -0.2 0.0 0.1 -0.2 0.001
GW 174 5 0.0 0.1 -0.2 0.0 0.0 -0.2 0.001
GW 175 5 0.0 0.0 -0.2 0.0 -0.1 -0.2 0.001
GW 176 5 0.0 -0.1 -0.2 0.0 -0.2 -0.2 0.001
GW 177 5 -0.2 -0.1 -0.2 -0.1 -0.1 -0.2 0.001
GW 178 5 -0.1 -0.1 -0.2 0.0 -0.1 -0.2 0.001
GW 179 5 0.0 -0.1 -0.2 0.1 -0.1 -0.2 0.001
GW 180 5 0.1 -0.1 -0.2 0.2 -0.1 -0.2 0.001
GW 181 5 0.1 0.2 -0.2 0.1 0.1 -0.2 0.001
GW 182 5 0.1 0.1 -0.2 0.1 0.0 -0.2 0.001
GW 183 5 0.1 0.0 -0.2 0.1 -0.1 -0.2 0.001
GW 184 5 0.1 -0.1 -0.2 0.1 -0.2 -0.2 0.001
GW 185 5 -0.2 -0.2 -0.2 -0.1 -0.2 -0.2 0.001
GW 186 5 -0.1 -0.2 -0.2 0.0 -0.2 -0.2 0.001
GW 187 5 0.0 -0.2 -0.2 0.1 -0.2 -0.2 0.001
GW 188 5 0.1 -0.2 -0.2 0.2 -0.2 -0.2 0.001
GW 189 5 0.2 0.2 -0.2 0.2 0.1 -0.2 0.001
GW 190 5 0.2 0.1 -0.2 0.2 0.0 -0.2 0.001
GW 191 5 0.2 0.0 -0.2 0.2 -0.1 -0.2 0.001
GW 192 5 0.2 -0.1 -0.2 0.2 -0.2 -0.2 0.001
GW 193 13 0.0 0.0 0.5 0.0 0.0 0.2 0.001
GW 194 9 -0.2 0.0 0.5 0.0 0.0 0.5 0.001
GW 195 9 0.0 0.0 0.5 0.2 0.0 0.5 0.001
GE 0
EX 0 193 13 0 1.0 0.0 0.0 0.0
GN -1
FR 0 1 0 0 299.81 0.0 0.0 0.0
EN
